@<TRIPOS>MOLECULE
1,11
 11 11 0 0 0
SMALL
GASTEIGER

@<TRIPOS>ATOM
      1 C           7.3221    4.0999    5.5518 C.ar    1  UNL1        0.0230
      2 C           6.2740    4.9548    5.2403 C.ar    1  UNL1        0.1661
      3 C           5.9826    6.1274    5.9120 C.ar    1  UNL1        0.1590
      4 C           6.7890    6.5052    6.9722 C.ar    1  UNL1       -0.0236
      5 H           6.5717    7.4178    7.5036 H       1  UNL1        0.0647
      6 C           8.1130    4.5161    6.6295 C.ar    1  UNL1       -0.0510
      7 H           8.9541    3.9031    6.9370 H       1  UNL1        0.0625
      8 C           7.8577    5.6938    7.3189 C.ar    1  UNL1       -0.0583
      9 H           8.4918    5.9876    8.1433 H       1  UNL1        0.0619
     10 F           4.9296    6.8999    5.5558 F       1  UNL1       -0.2025
     11 F           5.4919    4.5641    4.1524 F       1  UNL1       -0.2018
@<TRIPOS>BOND
     1    11     2    1
     2     2     1   ar
     3     2     3   ar
     4     1     6   ar
     5    10     3    1
     6     3     4   ar
     7     6     7    1
     8     6     8   ar
     9     4     8   ar
    10     4     5    1
    11     8     9    1
