@<TRIPOS>MOLECULE
1,2,3,4
 70 72 0 0 0
SMALL
GASTEIGER

@<TRIPOS>ATOM
      1 S           9.5714    3.7792   -0.4952 S.3     1  UNL1        0.0000
      2 S           9.5203    5.7662    2.5303 S.3     1  UNL1        0.0000
      3 S           6.8146    3.4130    3.0017 S.3     1  UNL1        0.0000
      4 P           7.5173    5.0366    0.6686 P.3     1  UNL1        0.0000
      5 SI          9.4335    1.7290   -3.0585 Si      1  UNL1        0.0000
      6 SI         11.6945    8.1354    2.1567 Si      1  UNL1        0.0000
      7 SI          4.2348    3.8072    4.8811 Si      1  UNL1        0.0000
      8 C           8.0998    3.5958   -1.3961 C.ar    1  UNL1        0.0000
      9 C           7.9709    2.8103   -2.5428 C.ar    1  UNL1        0.0000
     10 C           9.8202    0.4933   -1.6586 C.3     1  UNL1        0.0000
     11 H           9.9685    1.0261   -0.7234 H       1  UNL1        0.0000
     12 H          10.7215   -0.0789   -1.8603 H       1  UNL1        0.0000
     13 H           9.0041   -0.2097   -1.5118 H       1  UNL1        0.0000
     14 C          10.9585    2.7737   -3.5332 C.3     1  UNL1        0.0000
     15 H          11.2648    3.3789   -2.6872 H       1  UNL1        0.0000
     16 H          10.7435    3.4432   -4.3614 H       1  UNL1        0.0000
     17 H          11.7958    2.1446   -3.8220 H       1  UNL1        0.0000
     18 C           8.9339    0.7213   -4.6105 C.3     1  UNL1        0.0000
     19 H           8.6822    1.3676   -5.4449 H       1  UNL1        0.0000
     20 H           8.0811    0.0789   -4.4173 H       1  UNL1        0.0000
     21 H           9.7553    0.0866   -4.9263 H       1  UNL1        0.0000
     22 C           6.7253    2.7978   -3.1634 C.ar    1  UNL1        0.0000
     23 H           6.5957    2.1972   -4.0531 H       1  UNL1        0.0000
     24 C           5.6408    3.5093   -2.6714 C.ar    1  UNL1        0.0000
     25 H           4.6887    3.4633   -3.1837 H       1  UNL1        0.0000
     26 C           5.7642    4.2617   -1.5123 C.ar    1  UNL1        0.0000
     27 H           4.9189    4.7964   -1.0978 H       1  UNL1        0.0000
     28 C           7.0023    4.3239   -0.8978 C.ar    1  UNL1        0.0000
     29 C           8.3407    6.5918    0.2553 C.ar    1  UNL1        0.0000
     30 C           8.1401    7.4076   -0.8442 C.ar    1  UNL1        0.0000
     31 H           7.3670    7.1685   -1.5635 H       1  UNL1        0.0000
     32 C           8.9560    8.5168   -1.0077 C.ar    1  UNL1        0.0000
     33 H           8.8085    9.1738   -1.8547 H       1  UNL1        0.0000
     34 C           9.9771    8.7691   -0.1061 C.ar    1  UNL1        0.0000
     35 H          10.6221    9.6214   -0.2674 H       1  UNL1        0.0000
     36 C          10.2141    7.9500    0.9943 C.ar    1  UNL1        0.0000
     37 C          12.8190    6.6032    1.9926 C.3     1  UNL1        0.0000
     38 H          13.2871    6.5611    1.0128 H       1  UNL1        0.0000
     39 H          12.2354    5.6944    2.1140 H       1  UNL1        0.0000
     40 H          13.6069    6.5964    2.7406 H       1  UNL1        0.0000
     41 C          12.7089    9.6651    1.6091 C.3     1  UNL1        0.0000
     42 H          13.0717    9.5638    0.5919 H       1  UNL1        0.0000
     43 H          13.5732    9.7918    2.2525 H       1  UNL1        0.0000
     44 H          12.1242   10.5773    1.6659 H       1  UNL1        0.0000
     45 C          11.1606    8.4515    3.9636 C.3     1  UNL1        0.0000
     46 H          10.5363    9.3371    4.0450 H       1  UNL1        0.0000
     47 H          12.0225    8.5921    4.6100 H       1  UNL1        0.0000
     48 H          10.5907    7.6090    4.3390 H       1  UNL1        0.0000
     49 C           9.3643    6.8593    1.1709 C.ar    1  UNL1        0.0000
     50 C           5.9897    5.5209    1.5116 C.ar    1  UNL1        0.0000
     51 C           5.1490    6.5706    1.1792 C.ar    1  UNL1        0.0000
     52 H           5.3967    7.2080    0.3402 H       1  UNL1        0.0000
     53 C           4.0113    6.7925    1.9378 C.ar    1  UNL1        0.0000
     54 H           3.3465    7.6099    1.6917 H       1  UNL1        0.0000
     55 C           3.7298    5.9707    3.0177 C.ar    1  UNL1        0.0000
     56 H           2.8398    6.1573    3.6019 H       1  UNL1        0.0000
     57 C           4.5597    4.9165    3.3832 C.ar    1  UNL1        0.0000
     58 C           5.6135    4.0009    6.1871 C.3     1  UNL1        0.0000
     59 H           6.5765    3.7330    5.7651 H       1  UNL1        0.0000
     60 H           5.4371    3.3640    7.0495 H       1  UNL1        0.0000
     61 H           5.6825    5.0270    6.5385 H       1  UNL1        0.0000
     62 C           2.6021    4.3707    5.7063 C.3     1  UNL1        0.0000
     63 H           1.7591    4.2923    5.0278 H       1  UNL1        0.0000
     64 H           2.6582    5.3973    6.0524 H       1  UNL1        0.0000
     65 H           2.3854    3.7481    6.5679 H       1  UNL1        0.0000
     66 C           3.9887    1.9834    4.3710 C.3     1  UNL1        0.0000
     67 H           4.8811    1.6008    3.8880 H       1  UNL1        0.0000
     68 H           3.1628    1.8753    3.6730 H       1  UNL1        0.0000
     69 H           3.7793    1.3572    5.2338 H       1  UNL1        0.0000
     70 C           5.7053    4.6998    2.6117 C.ar    1  UNL1        0.0000
@<TRIPOS>BOND
     1    19    18    1
     2    21    18    1
     3    18    20    1
     4    18     5    1
     5    16    14    1
     6    23    22    1
     7    17    14    1
     8    14     5    1
     9    14    15    1
    10    25    24    1
    11    22    24   ar
    12    22     9   ar
    13     5     9    1
    14     5    10    1
    15    24    26   ar
    16     9     8   ar
    17    12    10    1
    18    33    32    1
    19    10    13    1
    20    10    11    1
    21    31    30    1
    22    26    27    1
    23    26    28   ar
    24     8    28   ar
    25     8     1    1
    26    32    30   ar
    27    32    34   ar
    28    28     4    1
    29    30    29   ar
    30    35    34    1
    31    34    36   ar
    32    29     4    1
    33    29    49   ar
    34    52    51    1
    35    42    41    1
    36     4    50    1
    37    36    49   ar
    38    36     6    1
    39    38    37    1
    40    49     2    1
    41    51    50   ar
    42    51    53   ar
    43    50    70   ar
    44    41    44    1
    45    41     6    1
    46    41    43    1
    47    54    53    1
    48    53    55   ar
    49    37    39    1
    50    37     6    1
    51    37    40    1
    52     6    45    1
    53    70     3    1
    54    70    57   ar
    55    55    57   ar
    56    55    56    1
    57    57     7    1
    58    68    66    1
    59    67    66    1
    60    45    46    1
    61    45    48    1
    62    45    47    1
    63    66     7    1
    64    66    69    1
    65     7    62    1
    66     7    58    1
    67    63    62    1
    68    62    64    1
    69    62    65    1
    70    59    58    1
    71    58    61    1
    72    58    60    1
