@<TRIPOS>MOLECULE
1,2,3,4
 70 72 0 0 0
SMALL
GASTEIGER

@<TRIPOS>ATOM
      1 S          -1.1951   12.9966    9.1350 S.3     1  UNL1        0.0000
      2 S           1.5571   12.7177    6.6248 S.3     1  UNL1        0.0000
      3 S           2.0157   14.7977    9.6946 S.3     1  UNL1        0.0000
      4 P           1.5198   11.9029    9.4681 P.3     1  UNL1        0.0000
      5 SI         -3.9330   11.6436   10.1868 Si      1  UNL1        0.0000
      6 SI          3.1183   11.1872    4.2463 Si      1  UNL1        0.0000
      7 SI          3.8533   16.2436   11.9316 Si      1  UNL1        0.0000
      8 C           0.1772   10.8551   10.1098 C.ar    1  UNL1        0.0000
      9 C          -1.0860   11.4414    9.9545 C.ar    1  UNL1        0.0000
     10 C          -2.2411   10.8049   10.4030 C.ar    1  UNL1        0.0000
     11 C          -2.0881    9.5564   10.9960 C.ar    1  UNL1        0.0000
     12 H          -2.9654    9.0383   11.3524 H       1  UNL1        0.0000
     13 C          -0.8481    8.9535   11.1309 C.ar    1  UNL1        0.0000
     14 H          -0.7694    7.9748   11.5818 H       1  UNL1        0.0000
     15 C           0.2933    9.6002   10.6872 C.ar    1  UNL1        0.0000
     16 H           1.2596    9.1269   10.7764 H       1  UNL1        0.0000
     17 C          -5.2633   10.4877   10.9217 C.3     1  UNL1        0.0000
     18 H          -6.2451   10.9391   10.8266 H       1  UNL1        0.0000
     19 H          -5.0954   10.2976   11.9766 H       1  UNL1        0.0000
     20 H          -5.2957    9.5313   10.4103 H       1  UNL1        0.0000
     21 C          -3.9904   13.2860   11.1572 C.3     1  UNL1        0.0000
     22 H          -3.2320   13.9746   10.8017 H       1  UNL1        0.0000
     23 H          -3.8149   13.1221   12.2166 H       1  UNL1        0.0000
     24 H          -4.9581   13.7688   11.0554 H       1  UNL1        0.0000
     25 C          -4.3503   11.8997    8.3417 C.3     1  UNL1        0.0000
     26 H          -5.3548   12.2948    8.2197 H       1  UNL1        0.0000
     27 H          -4.2953   10.9636    7.7934 H       1  UNL1        0.0000
     28 H          -3.6597   12.5951    7.8772 H       1  UNL1        0.0000
     29 C           2.5509   10.8763    8.3780 C.ar    1  UNL1        0.0000
     30 C           2.5059   11.2901    7.0394 C.ar    1  UNL1        0.0000
     31 C           3.2183   10.6105    6.0530 C.ar    1  UNL1        0.0000
     32 C           3.9844    9.5215    6.4538 C.ar    1  UNL1        0.0000
     33 H           4.5469    8.9794    5.7089 H       1  UNL1        0.0000
     34 C           4.0576    9.1209    7.7778 C.ar    1  UNL1        0.0000
     35 H           4.6766    8.2800    8.0553 H       1  UNL1        0.0000
     36 C           3.3401    9.7987    8.7488 C.ar    1  UNL1        0.0000
     37 H           3.4055    9.5014    9.7847 H       1  UNL1        0.0000
     38 C           4.2255   10.0427    3.1919 C.3     1  UNL1        0.0000
     39 H           4.1806   10.3343    2.1478 H       1  UNL1        0.0000
     40 H           3.9091    9.0066    3.2516 H       1  UNL1        0.0000
     41 H           5.2652   10.0935    3.4976 H       1  UNL1        0.0000
     42 C           1.3262   11.0055    3.6173 C.3     1  UNL1        0.0000
     43 H           0.6686   11.6946    4.1356 H       1  UNL1        0.0000
     44 H           0.9530    9.9997    3.7887 H       1  UNL1        0.0000
     45 H           1.2533   11.2072    2.5529 H       1  UNL1        0.0000
     46 C           3.7861   12.9647    4.0586 C.3     1  UNL1        0.0000
     47 H           4.0047   13.2015    3.0215 H       1  UNL1        0.0000
     48 H           4.7026   13.0970    4.6265 H       1  UNL1        0.0000
     49 H           3.0672   13.6904    4.4231 H       1  UNL1        0.0000
     50 C           2.5473   12.4062   10.8835 C.ar    1  UNL1        0.0000
     51 C           2.7775   13.7880   10.9209 C.ar    1  UNL1        0.0000
     52 C           3.5635   14.3651   11.9159 C.ar    1  UNL1        0.0000
     53 C           4.0945   13.5137   12.8787 C.ar    1  UNL1        0.0000
     54 H           4.7067   13.9326   13.6629 H       1  UNL1        0.0000
     55 C           3.8504   12.1501   12.8699 C.ar    1  UNL1        0.0000
     56 H           4.2647   11.5219   13.6453 H       1  UNL1        0.0000
     57 C           3.0733   11.5879   11.8711 C.ar    1  UNL1        0.0000
     58 H           2.8672   10.5281   11.8701 H       1  UNL1        0.0000
     59 C           4.7364   16.8108   10.3376 C.3     1  UNL1        0.0000
     60 H           4.1295   16.6108    9.4614 H       1  UNL1        0.0000
     61 H           5.6826   16.2932   10.2075 H       1  UNL1        0.0000
     62 H           4.9453   17.8764   10.3651 H       1  UNL1        0.0000
     63 C           2.2089   17.1746   12.2001 C.3     1  UNL1        0.0000
     64 H           2.3655   18.2492   12.2211 H       1  UNL1        0.0000
     65 H           1.7467   16.8907   13.1413 H       1  UNL1        0.0000
     66 H           1.5017   16.9550   11.4078 H       1  UNL1        0.0000
     67 C           4.9995   16.6539   13.4024 C.3     1  UNL1        0.0000
     68 H           5.1990   17.7197   13.4345 H       1  UNL1        0.0000
     69 H           5.9559   16.1477   13.3236 H       1  UNL1        0.0000
     70 H           4.5528   16.3797   14.3524 H       1  UNL1        0.0000
@<TRIPOS>BOND
     1    39    38    1
     2    45    42    1
     3    47    46    1
     4    38    40    1
     5    38    41    1
     6    38     6    1
     7    42    44    1
     8    42    43    1
     9    42     6    1
    10    46     6    1
    11    46    49    1
    12    46    48    1
    13     6    31    1
    14    33    32    1
    15    31    32   ar
    16    31    30   ar
    17    32    34   ar
    18     2    30    1
    19    30    29   ar
    20    34    35    1
    21    34    36   ar
    22    27    25    1
    23    28    25    1
    24    26    25    1
    25    25     5    1
    26    29    36   ar
    27    29     4    1
    28    36    37    1
    29     1     9    1
    30    60    59    1
    31     4     8    1
    32     4    50    1
    33     3    51    1
    34     9     8   ar
    35     9    10   ar
    36     8    15   ar
    37     5    10    1
    38     5    17    1
    39     5    21    1
    40    61    59    1
    41    59    62    1
    42    59     7    1
    43    10    11   ar
    44    20    17    1
    45    15    16    1
    46    15    13   ar
    47    22    21    1
    48    18    17    1
    49    50    51   ar
    50    50    57   ar
    51    51    52   ar
    52    17    19    1
    53    11    13   ar
    54    11    12    1
    55    24    21    1
    56    13    14    1
    57    21    23    1
    58    66    63    1
    59    58    57    1
    60    57    55   ar
    61    52     7    1
    62    52    53   ar
    63     7    63    1
    64     7    67    1
    65    63    64    1
    66    63    65    1
    67    55    53   ar
    68    55    56    1
    69    53    54    1
    70    69    67    1
    71    67    68    1
    72    67    70    1
