@<TRIPOS>MOLECULE
1,2,3,4
 70 72 0 0 0
SMALL
GASTEIGER

@<TRIPOS>ATOM
      1 S           8.5101   11.2732    3.6180 S.3     1  UNL1        0.0000
      2 S          10.3179   14.3600    3.8995 S.3     1  UNL1        0.0000
      3 S          12.3135    9.9812    2.9691 S.3     1  UNL1        0.0000
      4 P          10.7065   12.0706    1.9242 P.3     1  UNL1        0.0000
      5 SI          6.2200    9.0625    2.8664 Si      1  UNL1        0.0000
      6 SI          9.3023   17.3170    3.1073 Si      1  UNL1        0.0000
      7 SI         15.2802    9.0894    1.8857 Si      1  UNL1        0.0000
      8 C           8.5747   10.4614    2.0732 C.ar    1  UNL1        0.0000
      9 C           7.6215    9.5170    1.6834 C.ar    1  UNL1        0.0000
     10 C           7.7764    8.9294    0.4322 C.ar    1  UNL1        0.0000
     11 H           7.0565    8.1879    0.1156 H       1  UNL1        0.0000
     12 C           8.8237    9.2518   -0.4158 C.ar    1  UNL1        0.0000
     13 H           8.9162    8.7609   -1.3753 H       1  UNL1        0.0000
     14 C           9.7576   10.2003   -0.0305 C.ar    1  UNL1        0.0000
     15 H          10.5921   10.4580   -0.6700 H       1  UNL1        0.0000
     16 C           9.6232   10.8064    1.2052 C.ar    1  UNL1        0.0000
     17 C           9.8970   14.6606    2.2405 C.ar    1  UNL1        0.0000
     18 C           9.4258   15.9204    1.8399 C.ar    1  UNL1        0.0000
     19 C           9.0497   16.0829    0.5138 C.ar    1  UNL1        0.0000
     20 H           8.6820   17.0475    0.1933 H       1  UNL1        0.0000
     21 C           9.1176   15.0504   -0.4098 C.ar    1  UNL1        0.0000
     22 H           8.7956   15.2096   -1.4303 H       1  UNL1        0.0000
     23 C           9.5994   13.8144   -0.0165 C.ar    1  UNL1        0.0000
     24 H           9.6555   12.9889   -0.7143 H       1  UNL1        0.0000
     25 C          10.0041   13.6246    1.2955 C.ar    1  UNL1        0.0000
     26 C          13.0203   10.8174    1.6311 C.ar    1  UNL1        0.0000
     27 C          14.2714   10.4794    1.0991 C.ar    1  UNL1        0.0000
     28 C          14.7333   11.2260    0.0207 C.ar    1  UNL1        0.0000
     29 H          15.6984   10.9827   -0.4018 H       1  UNL1        0.0000
     30 C          14.0106   12.2765   -0.5225 C.ar    1  UNL1        0.0000
     31 H          14.4140   12.8415   -1.3522 H       1  UNL1        0.0000
     32 C          12.7706   12.6062    0.0023 C.ar    1  UNL1        0.0000
     33 H          12.1959   13.4306   -0.3984 H       1  UNL1        0.0000
     34 C          12.2729   11.8615    1.0555 C.ar    1  UNL1        0.0000
     35 C           6.9004    8.2705    4.4638 C.3     1  UNL1        0.0000
     36 H           6.1050    8.0228    5.1613 H       1  UNL1        0.0000
     37 H           7.5757    8.9616    4.9553 H       1  UNL1        0.0000
     38 H           7.4550    7.3610    4.2505 H       1  UNL1        0.0000
     39 C           5.1161   10.5703    3.2529 C.3     1  UNL1        0.0000
     40 H           4.3296   10.3194    3.9590 H       1  UNL1        0.0000
     41 H           4.6459   10.9588    2.3539 H       1  UNL1        0.0000
     42 H           5.7165   11.3640    3.6824 H       1  UNL1        0.0000
     43 C           5.1009    7.7532    2.0243 C.3     1  UNL1        0.0000
     44 H           5.6429    6.8388    1.8066 H       1  UNL1        0.0000
     45 H           4.6820    8.1222    1.0938 H       1  UNL1        0.0000
     46 H           4.2714    7.4934    2.6740 H       1  UNL1        0.0000
     47 C           8.0329   16.9185    4.4748 C.3     1  UNL1        0.0000
     48 H           8.3066   15.9954    4.9722 H       1  UNL1        0.0000
     49 H           7.0357   16.7899    4.0634 H       1  UNL1        0.0000
     50 H           7.9882   17.7057    5.2223 H       1  UNL1        0.0000
     51 C           8.6770   18.8978    2.2197 C.3     1  UNL1        0.0000
     52 H           7.6877   18.7580    1.7966 H       1  UNL1        0.0000
     53 H           9.3428   19.2011    1.4184 H       1  UNL1        0.0000
     54 H           8.6165   19.7229    2.9220 H       1  UNL1        0.0000
     55 C          11.0112   17.7557    3.8380 C.3     1  UNL1        0.0000
     56 H          10.9390   18.5539    4.5714 H       1  UNL1        0.0000
     57 H          11.7035   18.0751    3.0640 H       1  UNL1        0.0000
     58 H          11.4363   16.8864    4.3254 H       1  UNL1        0.0000
     59 C          15.7200    9.5121    3.6957 C.3     1  UNL1        0.0000
     60 H          14.8102    9.7023    4.2533 H       1  UNL1        0.0000
     61 H          16.3414   10.4012    3.7582 H       1  UNL1        0.0000
     62 H          16.2494    8.6980    4.1829 H       1  UNL1        0.0000
     63 C          14.3836    7.4086    1.7748 C.3     1  UNL1        0.0000
     64 H          14.2524    7.0939    0.7430 H       1  UNL1        0.0000
     65 H          13.4007    7.4892    2.2254 H       1  UNL1        0.0000
     66 H          14.9320    6.6275    2.2946 H       1  UNL1        0.0000
     67 C          16.9374    8.9075    0.9400 C.3     1  UNL1        0.0000
     68 H          17.5339    8.1118    1.3746 H       1  UNL1        0.0000
     69 H          17.5277    9.8171    0.9816 H       1  UNL1        0.0000
     70 H          16.7779    8.6612   -0.1047 H       1  UNL1        0.0000
@<TRIPOS>BOND
     1    22    21    1
     2    13    12    1
     3    31    30    1
     4    24    23    1
     5    15    14    1
     6    30    32   ar
     7    30    28   ar
     8    12    14   ar
     9    12    10   ar
    10    21    23   ar
    11    21    19   ar
    12    29    28    1
    13    33    32    1
    14    70    67    1
    15    14    16   ar
    16    23    25   ar
    17    32    34   ar
    18    28    27   ar
    19    11    10    1
    20    20    19    1
    21    10     9   ar
    22    19    18   ar
    23    64    63    1
    24    67    69    1
    25    67    68    1
    26    67     7    1
    27    34    26   ar
    28    34     4    1
    29    45    43    1
    30    27    26   ar
    31    27     7    1
    32    16     4    1
    33    16     8   ar
    34    25     4    1
    35    25    17   ar
    36    53    51    1
    37    26     3    1
    38     9     8   ar
    39     9     5    1
    40    63     7    1
    41    63    65    1
    42    63    66    1
    43    52    51    1
    44    44    43    1
    45    18    17   ar
    46    18     6    1
    47     7    59    1
    48    43    46    1
    49    43     5    1
    50     8     1    1
    51    51    54    1
    52    51     6    1
    53    17     2    1
    54    41    39    1
    55     5    39    1
    56     5    35    1
    57    57    55    1
    58     6    55    1
    59     6    47    1
    60    39    42    1
    61    39    40    1
    62    59    61    1
    63    59    62    1
    64    59    60    1
    65    55    58    1
    66    55    56    1
    67    49    47    1
    68    38    35    1
    69    35    37    1
    70    35    36    1
    71    47    48    1
    72    47    50    1
