@<TRIPOS>MOLECULE
1,2,3,4
 70 72 0 0 0
SMALL
GASTEIGER

@<TRIPOS>ATOM
      1 S          20.2697    7.0557    6.7063 S.3     1  UNL1        0.0000
      2 S          22.3232    3.9286    6.1038 S.3     1  UNL1        0.0000
      3 S          23.8061    6.6783    8.1378 S.3     1  UNL1        0.0000
      4 P          22.8504    6.7171    5.3533 P.3     1  UNL1        0.0000
      5 SI         17.9448    9.0783    5.8857 Si      1  UNL1        0.0000
      6 SI         22.5857    1.3619    4.1829 Si      1  UNL1        0.0000
      7 SI         26.6466    7.7617    9.1775 Si      1  UNL1        0.0000
      8 C          21.8228    8.0756    4.7192 C.ar    1  UNL1        0.0000
      9 C          20.5817    8.1400    5.3722 C.ar    1  UNL1        0.0000
     10 C          19.6176    9.0774    4.9935 C.ar    1  UNL1        0.0000
     11 C          19.9512    9.9620    3.9762 C.ar    1  UNL1        0.0000
     12 H          19.2245   10.6989    3.6656 H       1  UNL1        0.0000
     13 C          21.1937    9.9389    3.3603 C.ar    1  UNL1        0.0000
     14 H          21.4284   10.6593    2.5882 H       1  UNL1        0.0000
     15 C          22.1356    8.9930    3.7290 C.ar    1  UNL1        0.0000
     16 H          23.1093    8.9802    3.2604 H       1  UNL1        0.0000
     17 C          16.8558   10.4271    5.0686 C.3     1  UNL1        0.0000
     18 H          16.7022   10.2363    4.0116 H       1  UNL1        0.0000
     19 H          17.2913   11.4157    5.1701 H       1  UNL1        0.0000
     20 H          15.8790   10.4525    5.5399 H       1  UNL1        0.0000
     21 C          18.1224    9.5432    7.7266 C.3     1  UNL1        0.0000
     22 H          17.1514    9.6169    8.2084 H       1  UNL1        0.0000
     23 H          18.6317   10.4947    7.8526 H       1  UNL1        0.0000
     24 H          18.6972    8.7878    8.2506 H       1  UNL1        0.0000
     25 C          17.0320    7.4180    5.6687 C.3     1  UNL1        0.0000
     26 H          17.5373    6.6321    6.2195 H       1  UNL1        0.0000
     27 H          16.9923    7.1176    4.6252 H       1  UNL1        0.0000
     28 H          16.0119    7.4782    6.0379 H       1  UNL1        0.0000
     29 C          22.9856    5.5130    3.9920 C.ar    1  UNL1        0.0000
     30 C          22.7738    4.1973    4.4263 C.ar    1  UNL1        0.0000
     31 C          22.8698    3.1227    3.5419 C.ar    1  UNL1        0.0000
     32 C          23.1602    3.4129    2.2136 C.ar    1  UNL1        0.0000
     33 H          23.2377    2.5995    1.5068 H       1  UNL1        0.0000
     34 C          23.3349    4.7128    1.7671 C.ar    1  UNL1        0.0000
     35 H          23.5371    4.9036    0.7217 H       1  UNL1        0.0000
     36 C          23.2476    5.7710    2.6568 C.ar    1  UNL1        0.0000
     37 H          23.3636    6.7880    2.3106 H       1  UNL1        0.0000
     38 C          22.8264    0.1584    2.7123 C.3     1  UNL1        0.0000
     39 H          23.8231    0.2316    2.2896 H       1  UNL1        0.0000
     40 H          22.1116    0.3434    1.9173 H       1  UNL1        0.0000
     41 H          22.6878   -0.8660    3.0419 H       1  UNL1        0.0000
     42 C          23.8778    0.8949    5.5058 C.3     1  UNL1        0.0000
     43 H          23.7876    1.5470    6.3673 H       1  UNL1        0.0000
     44 H          24.8908    0.9889    5.1240 H       1  UNL1        0.0000
     45 H          23.7429   -0.1283    5.8452 H       1  UNL1        0.0000
     46 C          20.8024    1.1183    4.8150 C.3     1  UNL1        0.0000
     47 H          20.5871    0.0690    4.9972 H       1  UNL1        0.0000
     48 H          20.0735    1.4889    4.0995 H       1  UNL1        0.0000
     49 H          20.6528    1.6557    5.7446 H       1  UNL1        0.0000
     50 C          24.5301    7.3602    5.6031 C.ar    1  UNL1        0.0000
     51 C          24.9134    7.3364    6.9535 C.ar    1  UNL1        0.0000
     52 C          26.1695    7.8092    7.3446 C.ar    1  UNL1        0.0000
     53 C          27.0187    8.2767    6.3500 C.ar    1  UNL1        0.0000
     54 H          27.9962    8.6433    6.6289 H       1  UNL1        0.0000
     55 C          26.6580    8.2736    5.0112 C.ar    1  UNL1        0.0000
     56 H          27.3529    8.6273    4.2614 H       1  UNL1        0.0000
     57 C          25.4089    7.8123    4.6322 C.ar    1  UNL1        0.0000
     58 H          25.1284    7.7885    3.5889 H       1  UNL1        0.0000
     59 C          26.7363    5.9709    9.8275 C.3     1  UNL1        0.0000
     60 H          25.7610    5.5009    9.7690 H       1  UNL1        0.0000
     61 H          27.0607    5.9416   10.8639 H       1  UNL1        0.0000
     62 H          27.4286    5.3701    9.2439 H       1  UNL1        0.0000
     63 C          28.4046    8.5056    9.3477 C.3     1  UNL1        0.0000
     64 H          28.7102    8.5068   10.3887 H       1  UNL1        0.0000
     65 H          28.4450    9.5313    8.9959 H       1  UNL1        0.0000
     66 H          29.1412    7.9331    8.7937 H       1  UNL1        0.0000
     67 C          25.4834    8.8469   10.2297 C.3     1  UNL1        0.0000
     68 H          24.4713    8.4610   10.1879 H       1  UNL1        0.0000
     69 H          25.4621    9.8722    9.8706 H       1  UNL1        0.0000
     70 H          25.7933    8.8642   11.2708 H       1  UNL1        0.0000
@<TRIPOS>BOND
     1    35    34    1
     2    33    32    1
     3    34    32   ar
     4    34    36   ar
     5    40    38    1
     6    32    31   ar
     7    39    38    1
     8    37    36    1
     9    14    13    1
    10    36    29   ar
    11    38    41    1
    12    38     6    1
    13    16    15    1
    14    13    15   ar
    15    13    11   ar
    16    31     6    1
    17    31    30   ar
    18    58    57    1
    19    12    11    1
    20    15     8   ar
    21    11    10   ar
    22    29    30   ar
    23    29     4    1
    24    18    17    1
    25    48    46    1
    26     6    46    1
    27     6    42    1
    28    56    55    1
    29    30     2    1
    30    27    25    1
    31    57    55   ar
    32    57    50   ar
    33     8     4    1
    34     8     9   ar
    35    46    47    1
    36    46    49    1
    37    10     9   ar
    38    10     5    1
    39    55    53   ar
    40    17    19    1
    41    17    20    1
    42    17     5    1
    43    44    42    1
    44     4    50    1
    45     9     1    1
    46    42    45    1
    47    42    43    1
    48    50    51   ar
    49    25     5    1
    50    25    28    1
    51    25    26    1
    52     5    21    1
    53    53    54    1
    54    53    52   ar
    55    51    52   ar
    56    51     3    1
    57    52     7    1
    58    21    23    1
    59    21    22    1
    60    21    24    1
    61    66    63    1
    62    65    63    1
    63     7    63    1
    64     7    59    1
    65     7    67    1
    66    62    59    1
    67    63    64    1
    68    60    59    1
    69    59    61    1
    70    69    67    1
    71    68    67    1
    72    67    70    1
