@<TRIPOS>MOLECULE
1,2,3,4
 70 72 0 0 0
SMALL
GASTEIGER

@<TRIPOS>ATOM
      1 S           6.7543   -0.2785    3.0793 S.3     1  UNL1        0.0000
      2 S           9.8974    1.6656    4.6028 S.3     1  UNL1        0.0000
      3 S           6.7528    0.7635    6.9100 S.3     1  UNL1        0.0000
      4 P           7.0542    2.2854    4.4367 P.3     1  UNL1        0.0000
      5 SI          5.7175   -0.7062    0.0254 Si      1  UNL1        0.0000
      6 SI         12.3049    3.8350    4.9054 Si      1  UNL1        0.0000
      7 SI          4.2961    1.0329    9.0250 Si      1  UNL1        0.0000
      8 C           6.3814    1.1221    2.1165 C.ar    1  UNL1        0.0000
      9 C           5.9437    1.0090    0.7918 C.ar    1  UNL1        0.0000
     10 C           5.7216    2.1860    0.0878 C.ar    1  UNL1        0.0000
     11 H           5.3900    2.1207   -0.9387 H       1  UNL1        0.0000
     12 C           5.9286    3.4377    0.6476 C.ar    1  UNL1        0.0000
     13 H           5.7658    4.3296    0.0578 H       1  UNL1        0.0000
     14 C           6.3474    3.5434    1.9635 C.ar    1  UNL1        0.0000
     15 H           6.5302    4.5092    2.4153 H       1  UNL1        0.0000
     16 C           6.5495    2.3884    2.6993 C.ar    1  UNL1        0.0000
     17 C           7.3775   -1.6403   -0.0735 C.3     1  UNL1        0.0000
     18 H           7.7941   -1.7619    0.9199 H       1  UNL1        0.0000
     19 H           8.1038   -1.0977   -0.6724 H       1  UNL1        0.0000
     20 H           7.2554   -2.6279   -0.5094 H       1  UNL1        0.0000
     21 C           5.0850   -0.4907   -1.7708 C.3     1  UNL1        0.0000
     22 H           4.9298   -1.4603   -2.2325 H       1  UNL1        0.0000
     23 H           5.7946    0.0524   -2.3863 H       1  UNL1        0.0000
     24 H           4.1394    0.0404   -1.8037 H       1  UNL1        0.0000
     25 C           4.3947   -1.7116    0.9632 C.3     1  UNL1        0.0000
     26 H           4.2576   -2.6959    0.5244 H       1  UNL1        0.0000
     27 H           3.4328   -1.2066    0.9576 H       1  UNL1        0.0000
     28 H           4.6934   -1.8426    1.9969 H       1  UNL1        0.0000
     29 C           9.4946    3.3540    4.7277 C.ar    1  UNL1        0.0000
     30 C          10.4807    4.3369    4.8713 C.ar    1  UNL1        0.0000
     31 C          10.0577    5.6527    5.0130 C.ar    1  UNL1        0.0000
     32 H          10.8028    6.4264    5.1315 H       1  UNL1        0.0000
     33 C           8.7166    6.0054    5.0273 C.ar    1  UNL1        0.0000
     34 H           8.4289    7.0392    5.1624 H       1  UNL1        0.0000
     35 C           7.7458    5.0301    4.8711 C.ar    1  UNL1        0.0000
     36 H           6.6937    5.2806    4.8956 H       1  UNL1        0.0000
     37 C           8.1375    3.7136    4.6987 C.ar    1  UNL1        0.0000
     38 C          12.8237    2.9967    3.2719 C.3     1  UNL1        0.0000
     39 H          12.2363    2.0997    3.1133 H       1  UNL1        0.0000
     40 H          13.8728    2.7151    3.2852 H       1  UNL1        0.0000
     41 H          12.6647    3.6519    2.4200 H       1  UNL1        0.0000
     42 C          12.6884    2.7346    6.4153 C.3     1  UNL1        0.0000
     43 H          12.0789    1.8387    6.3856 H       1  UNL1        0.0000
     44 H          12.4743    3.2496    7.3477 H       1  UNL1        0.0000
     45 H          13.7311    2.4302    6.4333 H       1  UNL1        0.0000
     46 C          13.3673    5.4206    5.0801 C.3     1  UNL1        0.0000
     47 H          14.4223    5.1667    5.0833 H       1  UNL1        0.0000
     48 H          13.1571    5.9474    6.0051 H       1  UNL1        0.0000
     49 H          13.2011    6.1094    4.2584 H       1  UNL1        0.0000
     50 C           5.4749    1.8947    6.5703 C.ar    1  UNL1        0.0000
     51 C           4.3889    2.0594    7.4379 C.ar    1  UNL1        0.0000
     52 C           3.3978    2.9570    7.0608 C.ar    1  UNL1        0.0000
     53 H           2.5478    3.0946    7.7139 H       1  UNL1        0.0000
     54 C           3.4501    3.6654    5.8698 C.ar    1  UNL1        0.0000
     55 H           2.6468    4.3387    5.6031 H       1  UNL1        0.0000
     56 C           4.5302    3.5029    5.0183 C.ar    1  UNL1        0.0000
     57 H           4.5808    4.0288    4.0744 H       1  UNL1        0.0000
     58 C           5.5483    2.6376    5.3810 C.ar    1  UNL1        0.0000
     59 C           5.7615    1.4140   10.1858 C.3     1  UNL1        0.0000
     60 H           5.7167    0.8159   11.0915 H       1  UNL1        0.0000
     61 H           5.7772    2.4605   10.4773 H       1  UNL1        0.0000
     62 H           6.6974    1.1958    9.6845 H       1  UNL1        0.0000
     63 C           2.6980    1.5141    9.9672 C.3     1  UNL1        0.0000
     64 H           1.8073    1.3062    9.3834 H       1  UNL1        0.0000
     65 H           2.6867    2.5667   10.2303 H       1  UNL1        0.0000
     66 H           2.6216    0.9475   10.8895 H       1  UNL1        0.0000
     67 C           4.1723   -0.8288    8.6297 C.3     1  UNL1        0.0000
     68 H           5.0433   -1.1478    8.0686 H       1  UNL1        0.0000
     69 H           3.2939   -1.0498    8.0295 H       1  UNL1        0.0000
     70 H           4.1185   -1.4276    9.5346 H       1  UNL1        0.0000
@<TRIPOS>BOND
     1    23    21    1
     2    22    21    1
     3    24    21    1
     4    21     5    1
     5    11    10    1
     6    19    17    1
     7    20    17    1
     8    17     5    1
     9    17    18    1
    10     5     9    1
    11     5    25    1
    12    13    12    1
    13    10    12   ar
    14    10     9   ar
    15    26    25    1
    16    12    14   ar
    17     9     8   ar
    18    27    25    1
    19    25    28    1
    20    14    15    1
    21    14    16   ar
    22     8    16   ar
    23     8     1    1
    24    41    38    1
    25    16     4    1
    26    39    38    1
    27    38    40    1
    28    38     6    1
    29    57    56    1
    30    49    46    1
    31     4    37    1
    32     4    58    1
    33     2    29    1
    34    37    29   ar
    35    37    35   ar
    36    29    30   ar
    37    35    36    1
    38    35    33   ar
    39    30     6    1
    40    30    31   ar
    41     6    46    1
    42     6    42    1
    43    31    33   ar
    44    31    32    1
    45    56    58   ar
    46    56    54   ar
    47    33    34    1
    48    46    47    1
    49    46    48    1
    50    58    50   ar
    51    55    54    1
    52    54    52   ar
    53    43    42    1
    54    42    45    1
    55    42    44    1
    56    50     3    1
    57    50    51   ar
    58    52    51   ar
    59    52    53    1
    60    51     7    1
    61    69    67    1
    62    68    67    1
    63    67     7    1
    64    67    70    1
    65     7    63    1
    66     7    59    1
    67    64    63    1
    68    62    59    1
    69    63    65    1
    70    63    66    1
    71    59    61    1
    72    59    60    1
