@<TRIPOS>MOLECULE
1,2,3,4
 70 72 0 0 0
SMALL
GASTEIGER

@<TRIPOS>ATOM
      1 S           3.6910   17.5818    2.3626 S.3     1  UNL1        0.0000
      2 S           2.5902   19.9813    0.1438 S.3     1  UNL1        0.0000
      3 S           6.6619   19.9920    3.0244 S.3     1  UNL1        0.0000
      4 P           3.8970   20.4320    2.8720 P.3     1  UNL1        0.0000
      5 SI          3.6220   15.2435    4.6378 Si      1  UNL1        0.0000
      6 SI         -0.3156   21.0944   -0.7006 Si      1  UNL1        0.0000
      7 SI          8.9686   22.2371    3.6474 Si      1  UNL1        0.0000
      8 C           3.7465   18.0314    4.0535 C.ar    1  UNL1        0.0000
      9 C           3.8264   19.3986    4.3599 C.ar    1  UNL1        0.0000
     10 C           3.8780   19.8330    5.6724 C.ar    1  UNL1        0.0000
     11 H           3.9765   20.8892    5.8875 H       1  UNL1        0.0000
     12 C           3.8273   18.8952    6.6905 C.ar    1  UNL1        0.0000
     13 H           3.8696   19.2158    7.7228 H       1  UNL1        0.0000
     14 C           3.7338   17.5470    6.3850 C.ar    1  UNL1        0.0000
     15 H           3.7018   16.8285    7.1918 H       1  UNL1        0.0000
     16 C           3.6930   17.0815    5.0750 C.ar    1  UNL1        0.0000
     17 C           5.1786   14.7069    3.6743 C.3     1  UNL1        0.0000
     18 H           5.1492   13.6520    3.4156 H       1  UNL1        0.0000
     19 H           6.0817   14.8864    4.2509 H       1  UNL1        0.0000
     20 H           5.2562   15.2767    2.7553 H       1  UNL1        0.0000
     21 C           3.5920   14.2269    6.2626 C.3     1  UNL1        0.0000
     22 H           2.7290   14.4706    6.8735 H       1  UNL1        0.0000
     23 H           4.4820   14.3951    6.8600 H       1  UNL1        0.0000
     24 H           3.5442   13.1656    6.0411 H       1  UNL1        0.0000
     25 C           2.0240   14.8178    3.6850 C.3     1  UNL1        0.0000
     26 H           1.9674   15.4077    2.7774 H       1  UNL1        0.0000
     27 H           1.1394   15.0337    4.2775 H       1  UNL1        0.0000
     28 H           1.9922   13.7674    3.4095 H       1  UNL1        0.0000
     29 C           1.6587   20.8299    1.3496 C.ar    1  UNL1        0.0000
     30 C           2.1786   20.9914    2.6453 C.ar    1  UNL1        0.0000
     31 C           1.4123   21.5643    3.6482 C.ar    1  UNL1        0.0000
     32 H           1.8189   21.6430    4.6479 H       1  UNL1        0.0000
     33 C           0.1356   22.0140    3.3604 C.ar    1  UNL1        0.0000
     34 H          -0.4724   22.4593    4.1365 H       1  UNL1        0.0000
     35 C          -0.3588   21.8898    2.0711 C.ar    1  UNL1        0.0000
     36 H          -1.3527   22.2547    1.8545 H       1  UNL1        0.0000
     37 C           0.3723   21.2990    1.0490 C.ar    1  UNL1        0.0000
     38 C          -0.5472   19.2570   -1.1584 C.3     1  UNL1        0.0000
     39 H          -1.2523   18.7695   -0.4912 H       1  UNL1        0.0000
     40 H           0.3984   18.7334   -1.0797 H       1  UNL1        0.0000
     41 H          -0.9143   19.1424   -2.1745 H       1  UNL1        0.0000
     42 C          -2.0526   21.9030   -0.7694 C.3     1  UNL1        0.0000
     43 H          -2.4672   21.8154   -1.7684 H       1  UNL1        0.0000
     44 H          -2.0176   22.9592   -0.5233 H       1  UNL1        0.0000
     45 H          -2.7468   21.4241   -0.0868 H       1  UNL1        0.0000
     46 C           0.7558   22.0124   -1.9871 C.3     1  UNL1        0.0000
     47 H           1.7632   21.6130   -1.9824 H       1  UNL1        0.0000
     48 H           0.8177   23.0745   -1.7669 H       1  UNL1        0.0000
     49 H           0.3542   21.9027   -2.9905 H       1  UNL1        0.0000
     50 C           6.1991   21.6183    3.3625 C.ar    1  UNL1        0.0000
     51 C           4.8201   21.9045    3.3419 C.ar    1  UNL1        0.0000
     52 C           4.3492   23.1851    3.5683 C.ar    1  UNL1        0.0000
     53 H           3.2899   23.3951    3.5071 H       1  UNL1        0.0000
     54 C           5.2590   24.1859    3.8717 C.ar    1  UNL1        0.0000
     55 H           4.9106   25.1924    4.0617 H       1  UNL1        0.0000
     56 C           6.6151   23.8995    3.9184 C.ar    1  UNL1        0.0000
     57 H           7.3090   24.6967    4.1469 H       1  UNL1        0.0000
     58 C           7.1198   22.6298    3.6646 C.ar    1  UNL1        0.0000
     59 C           9.4186   20.9525    4.9853 C.3     1  UNL1        0.0000
     60 H           8.8409   20.0481    4.8313 H       1  UNL1        0.0000
     61 H           9.1992   21.3221    5.9831 H       1  UNL1        0.0000
     62 H          10.4725   20.6914    4.9497 H       1  UNL1        0.0000
     63 C           9.9418   23.8383    4.0519 C.3     1  UNL1        0.0000
     64 H           9.6812   24.2311    5.0293 H       1  UNL1        0.0000
     65 H           9.7585   24.6176    3.3194 H       1  UNL1        0.0000
     66 H          11.0084   23.6385    4.0551 H       1  UNL1        0.0000
     67 C           9.5370   21.6599    1.9192 C.3     1  UNL1        0.0000
     68 H          10.6059   21.4679    1.8892 H       1  UNL1        0.0000
     69 H           9.3095   22.3987    1.1558 H       1  UNL1        0.0000
     70 H           9.0265   20.7427    1.6483 H       1  UNL1        0.0000
@<TRIPOS>BOND
     1    49    46    1
     2    41    38    1
     3    46    47    1
     4    46    48    1
     5    46     6    1
     6    43    42    1
     7    38    40    1
     8    38     6    1
     9    38    39    1
    10    42     6    1
    11    42    44    1
    12    42    45    1
    13     6    37    1
    14     2    29    1
    15    37    29   ar
    16    37    35   ar
    17    69    67    1
    18    29    30   ar
    19    70    67    1
    20    36    35    1
    21    68    67    1
    22    67     7    1
    23    35    33   ar
    24     1     8    1
    25    30     4    1
    26    30    31   ar
    27    20    17    1
    28    26    25    1
    29     4    51    1
    30     4     9    1
    31     3    50    1
    32    65    63    1
    33    51    50   ar
    34    51    52   ar
    35    33    31   ar
    36    33    34    1
    37    50    58   ar
    38    28    25    1
    39    18    17    1
    40    53    52    1
    41    52    54   ar
    42     7    58    1
    43     7    63    1
    44     7    59    1
    45    31    32    1
    46    58    56   ar
    47    17    19    1
    48    17     5    1
    49    25    27    1
    50    25     5    1
    51    54    56   ar
    52    54    55    1
    53    56    57    1
    54    63    66    1
    55    63    64    1
    56     8     9   ar
    57     8    16   ar
    58     9    10   ar
    59     5    16    1
    60     5    21    1
    61    60    59    1
    62    62    59    1
    63    59    61    1
    64    16    14   ar
    65    10    11    1
    66    10    12   ar
    67    24    21    1
    68    21    23    1
    69    21    22    1
    70    14    12   ar
    71    14    15    1
    72    12    13    1
