@<TRIPOS>MOLECULE
1,2,3,4
 70 72 0 0 0
SMALL
GASTEIGER

@<TRIPOS>ATOM
      1 P          11.0116    1.3255    4.0020 P.3     1  UNL1        0.0000
      2 S          13.3984    0.0428    3.8304 S.3     1  UNL1        0.0000
      3 S          11.5133    2.4623    6.4301 S.3     1  UNL1        0.0000
      4 S           9.4833   -0.5391    5.1174 S.3     1  UNL1        0.0000
      5 SI         16.2460    1.2358    2.5783 Si      1  UNL1        0.0000
      6 SI          9.6609    4.7032    8.0120 Si      1  UNL1        0.0000
      7 SI          7.9328   -3.0899    3.5633 Si      1  UNL1        0.0000
      8 C          16.7485    0.8079    4.3770 C.3     1  UNL1        0.0000
      9 H          16.1626   -0.0251    4.7526 H       1  UNL1        0.0000
     10 H          16.5974    1.6565    5.0392 H       1  UNL1        0.0000
     11 H          17.7964    0.5295    4.4335 H       1  UNL1        0.0000
     12 C          17.6187    2.3254    1.8303 C.3     1  UNL1        0.0000
     13 H          17.7667    3.2376    2.3988 H       1  UNL1        0.0000
     14 H          17.3950    2.6030    0.8056 H       1  UNL1        0.0000
     15 H          18.5609    1.7879    1.8231 H       1  UNL1        0.0000
     16 C          16.0837   -0.3571    1.5413 C.3     1  UNL1        0.0000
     17 H          16.9616   -0.9877    1.6449 H       1  UNL1        0.0000
     18 H          15.9636   -0.1275    0.4866 H       1  UNL1        0.0000
     19 H          15.2186   -0.9323    1.8545 H       1  UNL1        0.0000
     20 C          14.6148    2.1972    2.5834 C.ar    1  UNL1        0.0000
     21 C          14.4869    3.4856    2.0703 C.ar    1  UNL1        0.0000
     22 H          15.3564    3.9559    1.6348 H       1  UNL1        0.0000
     23 C          13.2934    4.1890    2.1084 C.ar    1  UNL1        0.0000
     24 H          13.2450    5.1901    1.7041 H       1  UNL1        0.0000
     25 C          12.1616    3.6176    2.6707 C.ar    1  UNL1        0.0000
     26 H          11.2237    4.1555    2.7194 H       1  UNL1        0.0000
     27 C          12.2563    2.3325    3.1726 C.ar    1  UNL1        0.0000
     28 C          13.4679    1.6332    3.1406 C.ar    1  UNL1        0.0000
     29 C           8.2968    5.9104    8.5720 C.3     1  UNL1        0.0000
     30 H           7.3303    5.4232    8.6477 H       1  UNL1        0.0000
     31 H           8.1967    6.7470    7.8885 H       1  UNL1        0.0000
     32 H           8.5357    6.3163    9.5492 H       1  UNL1        0.0000
     33 C           9.7336    3.2724    9.2838 C.3     1  UNL1        0.0000
     34 H           9.7125    3.6528   10.3005 H       1  UNL1        0.0000
     35 H          10.6443    2.6941    9.1633 H       1  UNL1        0.0000
     36 H           8.8869    2.6012    9.1658 H       1  UNL1        0.0000
     37 C          11.3227    5.6390    7.9600 C.3     1  UNL1        0.0000
     38 H          11.2403    6.5479    7.3713 H       1  UNL1        0.0000
     39 H          12.0979    5.0256    7.5128 H       1  UNL1        0.0000
     40 H          11.6495    5.9195    8.9567 H       1  UNL1        0.0000
     41 C           9.2273    4.0159    6.3008 C.ar    1  UNL1        0.0000
     42 C           8.0863    4.3879    5.5935 C.ar    1  UNL1        0.0000
     43 H           7.4212    5.1171    6.0322 H       1  UNL1        0.0000
     44 C           7.7705    3.8507    4.3559 C.ar    1  UNL1        0.0000
     45 H           6.8708    4.1656    3.8464 H       1  UNL1        0.0000
     46 C           8.5985    2.9048    3.7699 C.ar    1  UNL1        0.0000
     47 H           8.3633    2.4658    2.8091 H       1  UNL1        0.0000
     48 C           9.7400    2.5225    4.4493 C.ar    1  UNL1        0.0000
     49 C          10.0504    3.0668    5.6991 C.ar    1  UNL1        0.0000
     50 C           6.4611   -2.3076    4.4886 C.3     1  UNL1        0.0000
     51 H           5.9517   -3.0360    5.1122 H       1  UNL1        0.0000
     52 H           5.7332   -1.9006    3.7932 H       1  UNL1        0.0000
     53 H           6.7976   -1.4962    5.1255 H       1  UNL1        0.0000
     54 C           9.0574   -4.0385    4.7901 C.3     1  UNL1        0.0000
     55 H           8.5297   -4.8831    5.2223 H       1  UNL1        0.0000
     56 H           9.3721   -3.3937    5.6045 H       1  UNL1        0.0000
     57 H           9.9454   -4.4260    4.2979 H       1  UNL1        0.0000
     58 C           7.2805   -4.3489    2.2896 C.3     1  UNL1        0.0000
     59 H           8.0869   -4.8301    1.7456 H       1  UNL1        0.0000
     60 H           6.6222   -3.8808    1.5654 H       1  UNL1        0.0000
     61 H           6.7135   -5.1277    2.7885 H       1  UNL1        0.0000
     62 C           8.9324   -1.7516    2.6689 C.ar    1  UNL1        0.0000
     63 C           9.0973   -1.7263    1.2847 C.ar    1  UNL1        0.0000
     64 H           8.6338   -2.5041    0.6959 H       1  UNL1        0.0000
     65 C           9.8393   -0.7507    0.6385 C.ar    1  UNL1        0.0000
     66 H           9.9428   -0.7780   -0.4369 H       1  UNL1        0.0000
     67 C          10.4569    0.2577    1.3642 C.ar    1  UNL1        0.0000
     68 H          11.0488    1.0220    0.8782 H       1  UNL1        0.0000
     69 C          10.2964    0.2636    2.7368 C.ar    1  UNL1        0.0000
     70 C           9.5570   -0.7336    3.3857 C.ar    1  UNL1        0.0000
@<TRIPOS>BOND
     1    66    65    1
     2    18    16    1
     3    65    63   ar
     4    65    67   ar
     5    64    63    1
     6    14    12    1
     7    68    67    1
     8    63    62   ar
     9    67    69   ar
    10    16    17    1
    11    16    19    1
    12    16     5    1
    13    60    58    1
    14    22    21    1
    15    24    23    1
    16    59    58    1
    17    15    12    1
    18    12    13    1
    19    12     5    1
    20    21    23   ar
    21    21    20   ar
    22    23    25   ar
    23    58    61    1
    24    58     7    1
    25     5    20    1
    26     5     8    1
    27    20    28   ar
    28    62    70   ar
    29    62     7    1
    30    25    26    1
    31    25    27   ar
    32    69    70   ar
    33    69     1    1
    34    47    46    1
    35    28    27   ar
    36    28     2    1
    37    27     1    1
    38    70     4    1
    39     7    50    1
    40     7    54    1
    41    46    44   ar
    42    46    48   ar
    43    52    50    1
    44    45    44    1
    45     1    48    1
    46    57    54    1
    47    44    42   ar
    48     8    11    1
    49     8     9    1
    50     8    10    1
    51    48    49   ar
    52    50    51    1
    53    50    53    1
    54    54    55    1
    55    54    56    1
    56    42    43    1
    57    42    41   ar
    58    49    41   ar
    59    49     3    1
    60    41     6    1
    61    38    37    1
    62    39    37    1
    63    31    29    1
    64    37     6    1
    65    37    40    1
    66     6    29    1
    67     6    33    1
    68    29    30    1
    69    29    32    1
    70    35    33    1
    71    36    33    1
    72    33    34    1
