@<TRIPOS>MOLECULE
1,2,3,4
 70 72 0 0 0
SMALL
GASTEIGER

@<TRIPOS>ATOM
      1 S          -0.1091    8.9354    4.1661 S.3     1  UNL1        0.0000
      2 S          -3.2067   10.1723    4.5488 S.3     1  UNL1        0.0000
      3 S          -0.1925    7.9558    7.6254 S.3     1  UNL1        0.0000
      4 P          -1.2693   10.5478    6.3665 P.3     1  UNL1        0.0000
      5 SI          1.1294   10.1069    1.4208 Si      1  UNL1        0.0000
      6 SI          1.1943    7.8053   10.5100 Si      1  UNL1        0.0000
      7 SI         -6.3686   11.1818    4.7942 Si      1  UNL1        0.0000
      8 C           0.0099   10.6680    3.9917 C.ar    1  UNL1        0.0000
      9 C           0.5961   11.2325    2.8608 C.ar    1  UNL1        0.0000
     10 C           0.6805   12.6190    2.8216 C.ar    1  UNL1        0.0000
     11 H           1.1273   13.0866    1.9576 H       1  UNL1        0.0000
     12 C           0.1934   13.4187    3.8440 C.ar    1  UNL1        0.0000
     13 H           0.2643   14.4941    3.7694 H       1  UNL1        0.0000
     14 C          -0.4050   12.8453    4.9523 C.ar    1  UNL1        0.0000
     15 H          -0.8279   13.4586    5.7362 H       1  UNL1        0.0000
     16 C          -0.4821   11.4625    5.0264 C.ar    1  UNL1        0.0000
     17 C           0.1725    9.4712    8.4107 C.ar    1  UNL1        0.0000
     18 C           0.8638    9.4573    9.6260 C.ar    1  UNL1        0.0000
     19 C           1.2487   10.6827   10.1516 C.ar    1  UNL1        0.0000
     20 H           1.7833   10.6993   11.0889 H       1  UNL1        0.0000
     21 C           0.2562   11.8836    8.3296 C.ar    1  UNL1        0.0000
     22 H           0.0351   12.8085    7.8160 H       1  UNL1        0.0000
     23 C          -4.9631   11.8539    5.8855 C.ar    1  UNL1        0.0000
     24 C          -5.1645   12.7719    6.9145 C.ar    1  UNL1        0.0000
     25 H          -6.1320   13.2423    7.0022 H       1  UNL1        0.0000
     26 C          -4.1824   13.0748    7.8421 C.ar    1  UNL1        0.0000
     27 H          -4.3875   13.7816    8.6328 H       1  UNL1        0.0000
     28 C          -2.9463   12.4472    7.7909 C.ar    1  UNL1        0.0000
     29 H          -2.1982   12.6343    8.5473 H       1  UNL1        0.0000
     30 C           2.5103    8.9069    1.9587 C.3     1  UNL1        0.0000
     31 H           3.2898    9.4202    2.5152 H       1  UNL1        0.0000
     32 H           2.9740    8.4408    1.0944 H       1  UNL1        0.0000
     33 H           2.1168    8.1184    2.5913 H       1  UNL1        0.0000
     34 C          -0.4108    9.1849    0.7799 C.3     1  UNL1        0.0000
     35 H          -1.2290    9.8713    0.5786 H       1  UNL1        0.0000
     36 H          -0.7602    8.4648    1.5138 H       1  UNL1        0.0000
     37 H          -0.1974    8.6438   -0.1368 H       1  UNL1        0.0000
     38 C           1.8079   11.2259    0.0335 C.3     1  UNL1        0.0000
     39 H           1.0619   11.9261   -0.3272 H       1  UNL1        0.0000
     40 H           2.1181   10.6194   -0.8104 H       1  UNL1        0.0000
     41 H           2.6731   11.7944    0.3586 H       1  UNL1        0.0000
     42 C          -0.4657    6.9322   10.8675 C.3     1  UNL1        0.0000
     43 H          -1.0512    7.4766   11.6033 H       1  UNL1        0.0000
     44 H          -0.3012    5.9301   11.2516 H       1  UNL1        0.0000
     45 H          -1.0691    6.8455    9.9694 H       1  UNL1        0.0000
     46 C           2.0126    8.1929   12.1895 C.3     1  UNL1        0.0000
     47 H           1.3966    8.8395   12.8057 H       1  UNL1        0.0000
     48 H           2.9804    8.6679   12.0682 H       1  UNL1        0.0000
     49 H           2.1717    7.2739   12.7429 H       1  UNL1        0.0000
     50 C          -5.9853   11.3250    2.9333 C.3     1  UNL1        0.0000
     51 H          -5.7837   12.3536    2.6475 H       1  UNL1        0.0000
     52 H          -6.8251   10.9759    2.3398 H       1  UNL1        0.0000
     53 H          -5.1172   10.7325    2.6645 H       1  UNL1        0.0000
     54 C          -6.6319    9.3824    5.3688 C.3     1  UNL1        0.0000
     55 H          -6.9667    9.3453    6.4021 H       1  UNL1        0.0000
     56 H          -5.7042    8.8180    5.3078 H       1  UNL1        0.0000
     57 H          -7.3706    8.8686    4.7617 H       1  UNL1        0.0000
     58 C           0.9837   11.8809    9.5044 C.ar    1  UNL1        0.0000
     59 H           1.3308   12.8129    9.9260 H       1  UNL1        0.0000
     60 C          -0.1788   10.6745    7.7976 C.ar    1  UNL1        0.0000
     61 C          -3.6992   11.2845    5.8084 C.ar    1  UNL1        0.0000
     62 C          -2.7037   11.5709    6.7495 C.ar    1  UNL1        0.0000
     63 C           2.4084    6.7378    9.4994 C.3     1  UNL1        0.0000
     64 H           2.0002    6.4894    8.5257 H       1  UNL1        0.0000
     65 H           2.6265    5.8064   10.0128 H       1  UNL1        0.0000
     66 H           3.3501    7.2572    9.3437 H       1  UNL1        0.0000
     67 C          -7.9452   12.1892    5.1645 C.3     1  UNL1        0.0000
     68 H          -7.8127   13.2438    4.9458 H       1  UNL1        0.0000
     69 H          -8.2517   12.0969    6.2011 H       1  UNL1        0.0000
     70 H          -8.7649   11.8313    4.5511 H       1  UNL1        0.0000
@<TRIPOS>BOND
     1    40    38    1
     2    39    38    1
     3    37    34    1
     4    38    41    1
     5    38     5    1
     6    35    34    1
     7    34     5    1
     8    34    36    1
     9    32    30    1
    10     5    30    1
    11     5     9    1
    12    11    10    1
    13    30    31    1
    14    30    33    1
    15    52    50    1
    16    51    50    1
    17    53    50    1
    18    10     9   ar
    19    10    12   ar
    20     9     8   ar
    21    50     7    1
    22    13    12    1
    23    12    14   ar
    24     8     1    1
    25     8    16   ar
    26     2    61    1
    27    70    67    1
    28    57    54    1
    29     7    67    1
    30     7    54    1
    31     7    23    1
    32    68    67    1
    33    14    16   ar
    34    14    15    1
    35    16     4    1
    36    67    69    1
    37    56    54    1
    38    54    55    1
    39    61    23   ar
    40    61    62   ar
    41    23    24   ar
    42     4    62    1
    43     4    60    1
    44    62    28   ar
    45    24    25    1
    46    24    26   ar
    47     3    17    1
    48    28    26   ar
    49    28    29    1
    50    60    21   ar
    51    60    17   ar
    52    22    21    1
    53    26    27    1
    54    21    58   ar
    55    17    18   ar
    56    64    63    1
    57    66    63    1
    58    63    65    1
    59    63     6    1
    60    58    59    1
    61    58    19   ar
    62    18    19   ar
    63    18     6    1
    64    45    42    1
    65    19    20    1
    66     6    42    1
    67     6    46    1
    68    42    44    1
    69    42    43    1
    70    48    46    1
    71    46    49    1
    72    46    47    1
