@<TRIPOS>MOLECULE
1,2,3,4
 70 72 0 0 0
SMALL
GASTEIGER

@<TRIPOS>ATOM
      1 S          -3.5783    7.4054    4.3030 S.3     1  UNL1        0.0000
      2 S          -0.4679    6.2176    4.7739 S.3     1  UNL1        0.0000
      3 S          -3.4124    8.8168    7.6110 S.3     1  UNL1        0.0000
      4 P          -2.3689    6.0835    6.6601 P.3     1  UNL1        0.0000
      5 SI         -4.9432    5.9048    1.7836 Si      1  UNL1        0.0000
      6 SI          2.6824    5.1807    5.0524 Si      1  UNL1        0.0000
      7 SI         -4.7592    9.3235   10.4776 Si      1  UNL1        0.0000
      8 C          -4.5790    5.1557    9.9689 C.ar    1  UNL1        0.0000
      9 H          -4.9234    4.2837   10.5054 H       1  UNL1        0.0000
     10 C          -3.8674    5.0063    8.7939 C.ar    1  UNL1        0.0000
     11 H          -3.6549    4.0248    8.3944 H       1  UNL1        0.0000
     12 C          -3.4369    6.1397    8.1124 C.ar    1  UNL1        0.0000
     13 C          -6.3193    7.1384    2.2530 C.3     1  UNL1        0.0000
     14 H          -7.0674    6.6768    2.8916 H       1  UNL1        0.0000
     15 H          -6.8250    7.5092    1.3665 H       1  UNL1        0.0000
     16 H          -5.9112    7.9914    2.7842 H       1  UNL1        0.0000
     17 C          -3.4640    6.7733    0.9532 C.3     1  UNL1        0.0000
     18 H          -2.6421    6.0836    0.7809 H       1  UNL1        0.0000
     19 H          -3.0907    7.5795    1.5774 H       1  UNL1        0.0000
     20 H          -3.7450    7.2014   -0.0043 H       1  UNL1        0.0000
     21 C          -5.6661    4.6207    0.5728 C.3     1  UNL1        0.0000
     22 H          -6.5051    4.0846    1.0041 H       1  UNL1        0.0000
     23 H          -4.9254    3.8916    0.2616 H       1  UNL1        0.0000
     24 H          -6.0259    5.1190   -0.3208 H       1  UNL1        0.0000
     25 C           2.9882    7.0432    5.3254 C.3     1  UNL1        0.0000
     26 H           3.3774    7.2358    6.3218 H       1  UNL1        0.0000
     27 H           2.0636    7.6063    5.2230 H       1  UNL1        0.0000
     28 H           3.6983    7.4432    4.6083 H       1  UNL1        0.0000
     29 C           2.2245    4.7527    3.2528 C.3     1  UNL1        0.0000
     30 H           2.0097    3.6937    3.1392 H       1  UNL1        0.0000
     31 H           3.0394    4.9988    2.5785 H       1  UNL1        0.0000
     32 H           1.3467    5.3030    2.9308 H       1  UNL1        0.0000
     33 C           4.2599    4.2159    5.5201 C.3     1  UNL1        0.0000
     34 H           4.1036    3.1426    5.4858 H       1  UNL1        0.0000
     35 H           4.6122    4.4724    6.5137 H       1  UNL1        0.0000
     36 H           5.0570    4.4497    4.8228 H       1  UNL1        0.0000
     37 C          -3.0897   10.2211   10.7054 C.3     1  UNL1        0.0000
     38 H          -2.4861    9.7498   11.4761 H       1  UNL1        0.0000
     39 H          -3.2425   11.2570   10.9923 H       1  UNL1        0.0000
     40 H          -2.5097   10.2157    9.7880 H       1  UNL1        0.0000
     41 C          -5.9794   10.2749    9.3640 C.3     1  UNL1        0.0000
     42 H          -5.5810   10.4061    8.3638 H       1  UNL1        0.0000
     43 H          -6.1855   11.2610    9.7687 H       1  UNL1        0.0000
     44 H          -6.9261    9.7481    9.2802 H       1  UNL1        0.0000
     45 C          -5.5618    9.1448   12.1995 C.3     1  UNL1        0.0000
     46 H          -4.9419    8.5758   12.8844 H       1  UNL1        0.0000
     47 H          -6.5316    8.6614   12.1446 H       1  UNL1        0.0000
     48 H          -5.7145   10.1246   12.6385 H       1  UNL1        0.0000
     49 C          -3.7047    5.6652    4.3520 C.ar    1  UNL1        0.0000
     50 C          -4.3281    4.9653    3.3211 C.ar    1  UNL1        0.0000
     51 C          -4.4081    3.5846    3.4575 C.ar    1  UNL1        0.0000
     52 H          -4.8824    3.0136    2.6742 H       1  UNL1        0.0000
     53 C          -3.8838    2.9180    4.5542 C.ar    1  UNL1        0.0000
     54 H          -3.9525    1.8417    4.6161 H       1  UNL1        0.0000
     55 C          -3.2549    3.6248    5.5643 C.ar    1  UNL1        0.0000
     56 H          -2.8077    3.1138    6.4060 H       1  UNL1        0.0000
     57 C          -3.1801    5.0060    5.4629 C.ar    1  UNL1        0.0000
     58 C           0.0467    5.2695    6.1537 C.ar    1  UNL1        0.0000
     59 C           1.3070    4.6999    6.2747 C.ar    1  UNL1        0.0000
     60 C           1.5279    3.9249    7.4117 C.ar    1  UNL1        0.0000
     61 H           2.4938    3.4600    7.5375 H       1  UNL1        0.0000
     62 C           0.5671    3.7567    8.3941 C.ar    1  UNL1        0.0000
     63 H           0.7873    3.1587    9.2664 H       1  UNL1        0.0000
     64 C          -0.6676    4.3799    8.2869 C.ar    1  UNL1        0.0000
     65 H          -1.4013    4.2972    9.0754 H       1  UNL1        0.0000
     66 C          -0.9286    5.1148    7.1455 C.ar    1  UNL1        0.0000
     67 C          -3.7746    7.4104    8.5792 C.ar    1  UNL1        0.0000
     68 C          -4.4489    7.5757    9.7929 C.ar    1  UNL1        0.0000
     69 C          -4.8315    6.4252   10.4683 C.ar    1  UNL1        0.0000
     70 H          -5.3541    6.5256   11.4070 H       1  UNL1        0.0000
@<TRIPOS>BOND
     1    24    21    1
     2    20    17    1
     3    23    21    1
     4    21    22    1
     5    21     5    1
     6    18    17    1
     7    17    19    1
     8    17     5    1
     9    15    13    1
    10     5    13    1
    11     5    50    1
    12    13    16    1
    13    13    14    1
    14    31    29    1
    15    52    51    1
    16    32    29    1
    17    30    29    1
    18    29     6    1
    19    50    51   ar
    20    50    49   ar
    21    51    53   ar
    22     1    49    1
    23    49    57   ar
    24    53    54    1
    25    53    55   ar
    26    28    25    1
    27     2    58    1
    28    36    33    1
    29     6    25    1
    30     6    33    1
    31     6    59    1
    32    27    25    1
    33    25    26    1
    34    57    55   ar
    35    57     4    1
    36    34    33    1
    37    33    35    1
    38    55    56    1
    39    58    59   ar
    40    58    66   ar
    41    59    60   ar
    42     4    66    1
    43     4    12    1
    44    66    64   ar
    45    60    61    1
    46    60    62   ar
    47     3    67    1
    48    12    67   ar
    49    12    10   ar
    50    64    62   ar
    51    64    65    1
    52    42    41    1
    53    62    63    1
    54    11    10    1
    55    67    68   ar
    56    10     8   ar
    57    44    41    1
    58    41    43    1
    59    41     7    1
    60    40    37    1
    61    68    69   ar
    62    68     7    1
    63     8    69   ar
    64     8     9    1
    65    69    70    1
    66     7    37    1
    67     7    45    1
    68    37    39    1
    69    37    38    1
    70    47    45    1
    71    45    48    1
    72    45    46    1
