@<TRIPOS>MOLECULE
1,2,3,4
 70 72 0 0 0
SMALL
GASTEIGER

@<TRIPOS>ATOM
      1 P           2.4124    4.7899    4.9931 P.3     1  UNL1        0.0000
      2 S           2.1527    2.2775    3.6933 S.3     1  UNL1        0.0000
      3 S           4.5034    4.6732    3.4880 S.3     1  UNL1        0.0000
      4 S           2.1098    2.6522    7.1435 S.3     1  UNL1        0.0000
      5 SI          0.9336    1.7278    0.7386 Si      1  UNL1        0.0000
      6 SI          7.0093    6.8799    3.3119 Si      1  UNL1        0.0000
      7 SI          0.4763    3.0498    9.8691 Si      1  UNL1        0.0000
      8 C           1.4497    3.5986    2.8164 C.ar    1  UNL1        0.0000
      9 C           0.8547    3.4297    1.5654 C.ar    1  UNL1        0.0000
     10 C           0.3119    4.5626    0.9695 C.ar    1  UNL1        0.0000
     11 H          -0.1578    4.4658    0.0010 H       1  UNL1        0.0000
     12 C           0.3723    5.8122    1.5661 C.ar    1  UNL1        0.0000
     13 H          -0.0481    6.6720    1.0619 H       1  UNL1        0.0000
     14 C           0.9910    5.9718    2.7964 C.ar    1  UNL1        0.0000
     15 H           1.0857    6.9507    3.2477 H       1  UNL1        0.0000
     16 C           1.5139    4.8545    3.4232 C.ar    1  UNL1        0.0000
     17 C           4.3878    6.2490    4.2063 C.ar    1  UNL1        0.0000
     18 C           5.3198    7.2740    4.0672 C.ar    1  UNL1        0.0000
     19 C           5.0057    8.4833    4.6822 C.ar    1  UNL1        0.0000
     20 H           5.6977    9.3078    4.5854 H       1  UNL1        0.0000
     21 C           3.8577    8.6539    5.4384 C.ar    1  UNL1        0.0000
     22 H           3.6604    9.6076    5.9092 H       1  UNL1        0.0000
     23 C           2.9784    7.5984    5.6372 C.ar    1  UNL1        0.0000
     24 H           2.1185    7.7103    6.2821 H       1  UNL1        0.0000
     25 C           3.2354    6.4050    4.9912 C.ar    1  UNL1        0.0000
     26 C           1.1187    4.0680    7.2845 C.ar    1  UNL1        0.0000
     27 C           0.2992    4.2427    8.4091 C.ar    1  UNL1        0.0000
     28 C          -0.5782    5.3175    8.3995 C.ar    1  UNL1        0.0000
     29 H          -1.2206    5.4718    9.2543 H       1  UNL1        0.0000
     30 C          -0.6662    6.1876    7.3226 C.ar    1  UNL1        0.0000
     31 H          -1.3880    6.9932    7.3331 H       1  UNL1        0.0000
     32 C           0.1887    6.0398    6.2448 C.ar    1  UNL1        0.0000
     33 H           0.1399    6.7166    5.4028 H       1  UNL1        0.0000
     34 C           1.1072    4.9989    6.2426 C.ar    1  UNL1        0.0000
     35 C          -0.0047    0.3955    1.7308 C.3     1  UNL1        0.0000
     36 H           0.5348    0.1532    2.6397 H       1  UNL1        0.0000
     37 H          -0.1152   -0.5184    1.1535 H       1  UNL1        0.0000
     38 H          -0.9981    0.7318    2.0150 H       1  UNL1        0.0000
     39 C           2.7518    1.2225    0.4688 C.3     1  UNL1        0.0000
     40 H           3.3106    1.9994   -0.0462 H       1  UNL1        0.0000
     41 H           2.8359    0.3084   -0.1121 H       1  UNL1        0.0000
     42 H           3.2355    1.0524    1.4256 H       1  UNL1        0.0000
     43 C           0.0928    1.8651   -0.9748 C.3     1  UNL1        0.0000
     44 H           0.5891    2.5889   -1.6124 H       1  UNL1        0.0000
     45 H          -0.9497    2.1531   -0.8894 H       1  UNL1        0.0000
     46 H           0.1253    0.9070   -1.4824 H       1  UNL1        0.0000
     47 C           7.8587    5.6507    4.4959 C.3     1  UNL1        0.0000
     48 H           7.2243    4.7818    4.6528 H       1  UNL1        0.0000
     49 H           8.0355    6.1004    5.4696 H       1  UNL1        0.0000
     50 H           8.8118    5.3004    4.1107 H       1  UNL1        0.0000
     51 C           6.8988    6.2116    1.5284 C.3     1  UNL1        0.0000
     52 H           6.3175    5.2962    1.5032 H       1  UNL1        0.0000
     53 H           7.8861    5.9932    1.1311 H       1  UNL1        0.0000
     54 H           6.4216    6.9248    0.8619 H       1  UNL1        0.0000
     55 C           8.0427    8.4892    3.2563 C.3     1  UNL1        0.0000
     56 H           8.2084    8.8936    4.2492 H       1  UNL1        0.0000
     57 H           7.5616    9.2566    2.6587 H       1  UNL1        0.0000
     58 H           9.0153    8.2950    2.8168 H       1  UNL1        0.0000
     59 C           2.2605    3.0710   10.5464 C.3     1  UNL1        0.0000
     60 H           2.4105    2.2857   11.2816 H       1  UNL1        0.0000
     61 H           2.5015    4.0198   11.0182 H       1  UNL1        0.0000
     62 H           2.9772    2.9144    9.7469 H       1  UNL1        0.0000
     63 C          -0.6585    3.6697   11.2810 C.3     1  UNL1        0.0000
     64 H          -0.5540    3.0289   12.1500 H       1  UNL1        0.0000
     65 H          -1.7042    3.6574   10.9925 H       1  UNL1        0.0000
     66 H          -0.4082    4.6796   11.5886 H       1  UNL1        0.0000
     67 C          -0.1172    1.2951    9.4115 C.3     1  UNL1        0.0000
     68 H          -0.0216    0.6150   10.2529 H       1  UNL1        0.0000
     69 H           0.4716    0.8921    8.5949 H       1  UNL1        0.0000
     70 H          -1.1591    1.2975    9.1021 H       1  UNL1        0.0000
@<TRIPOS>BOND
     1    44    43    1
     2    46    43    1
     3    43    45    1
     4    43     5    1
     5    41    39    1
     6    40    39    1
     7    11    10    1
     8    39     5    1
     9    39    42    1
    10     5     9    1
    11     5    35    1
    12    54    51    1
    13    10     9   ar
    14    10    12   ar
    15    13    12    1
    16    53    51    1
    17    37    35    1
    18    52    51    1
    19    51     6    1
    20     9     8   ar
    21    12    14   ar
    22    35    38    1
    23    35    36    1
    24    57    55    1
    25    14    15    1
    26    14    16   ar
    27     8    16   ar
    28     8     2    1
    29    58    55    1
    30    55     6    1
    31    55    56    1
    32     6    18    1
    33     6    47    1
    34    16     1    1
    35     3    17    1
    36    18    17   ar
    37    18    19   ar
    38    50    47    1
    39    17    25   ar
    40    47    48    1
    41    47    49    1
    42    20    19    1
    43    19    21   ar
    44    25     1    1
    45    25    23   ar
    46     1    34    1
    47    33    32    1
    48    21    23   ar
    49    21    22    1
    50    23    24    1
    51    34    32   ar
    52    34    26   ar
    53    32    30   ar
    54     4    26    1
    55    26    27   ar
    56    30    31    1
    57    30    28   ar
    58    28    27   ar
    59    28    29    1
    60    27     7    1
    61    69    67    1
    62    70    67    1
    63    67     7    1
    64    67    68    1
    65    62    59    1
    66     7    59    1
    67     7    63    1
    68    59    61    1
    69    59    60    1
    70    65    63    1
    71    63    66    1
    72    63    64    1
