@<TRIPOS>MOLECULE
1,2,3,4
 70 72 0 0 0
SMALL
GASTEIGER

@<TRIPOS>ATOM
      1 P           4.7561    1.5335    6.9138 P.3     1  UNL1        0.0000
      2 S           5.7756    2.3363    4.3881 S.3     1  UNL1        0.0000
      3 S           3.2985    0.2287    5.2350 S.3     1  UNL1        0.0000
      4 S           4.6613    4.5745    6.7844 S.3     1  UNL1        0.0000
      5 SI          7.9460    0.7540    2.5697 Si      1  UNL1        0.0000
      6 SI          0.6744   -1.7258    5.9153 Si      1  UNL1        0.0000
      7 SI          5.2623    6.5088    9.2644 Si      1  UNL1        0.0000
      8 C           6.5272    0.9101    5.0284 C.ar    1  UNL1        0.0000
      9 C           7.5116    0.2089    4.3304 C.ar    1  UNL1        0.0000
     10 C           8.0508   -0.9091    4.9571 C.ar    1  UNL1        0.0000
     11 H           8.8178   -1.4725    4.4450 H       1  UNL1        0.0000
     12 C           7.6231   -1.3349    6.2049 C.ar    1  UNL1        0.0000
     13 H           8.0569   -2.2195    6.6517 H       1  UNL1        0.0000
     14 C           6.6238   -0.6465    6.8753 C.ar    1  UNL1        0.0000
     15 H           6.2491   -0.9987    7.8274 H       1  UNL1        0.0000
     16 C           6.0921    0.4867    6.2858 C.ar    1  UNL1        0.0000
     17 C           2.9461   -0.3013    6.8498 C.ar    1  UNL1        0.0000
     18 C           1.9658   -1.2244    7.2043 C.ar    1  UNL1        0.0000
     19 C           1.8900   -1.5580    8.5543 C.ar    1  UNL1        0.0000
     20 H           1.1519   -2.2826    8.8675 H       1  UNL1        0.0000
     21 C           2.7028   -0.9699    9.5096 C.ar    1  UNL1        0.0000
     22 H           2.6006   -1.2504   10.5493 H       1  UNL1        0.0000
     23 C           3.6164    0.0126    9.1533 C.ar    1  UNL1        0.0000
     24 H           4.2004    0.5226    9.9062 H       1  UNL1        0.0000
     25 C           3.7539    0.3202    7.8140 C.ar    1  UNL1        0.0000
     26 C           5.3398    3.8609    8.2116 C.ar    1  UNL1        0.0000
     27 C           5.7230    4.6722    9.2894 C.ar    1  UNL1        0.0000
     28 C           6.3927    4.0632   10.3409 C.ar    1  UNL1        0.0000
     29 H           6.6987    4.6678   11.1823 H       1  UNL1        0.0000
     30 C           6.6930    2.7088   10.3378 C.ar    1  UNL1        0.0000
     31 H           7.2496    2.2743   11.1572 H       1  UNL1        0.0000
     32 C           6.2577    1.9082    9.2968 C.ar    1  UNL1        0.0000
     33 H           6.4756    0.8490    9.2846 H       1  UNL1        0.0000
     34 C           5.5484    2.4800    8.2495 C.ar    1  UNL1        0.0000
     35 C           8.6812    2.5137    2.5160 C.3     1  UNL1        0.0000
     36 H           9.4528    2.6484    3.2693 H       1  UNL1        0.0000
     37 H           7.9076    3.2510    2.7006 H       1  UNL1        0.0000
     38 H           9.1221    2.7262    1.5458 H       1  UNL1        0.0000
     39 C           9.2724   -0.4463    1.8910 C.3     1  UNL1        0.0000
     40 H           8.9169   -1.4709    1.8672 H       1  UNL1        0.0000
     41 H          10.1800   -0.4205    2.4849 H       1  UNL1        0.0000
     42 H           9.5391   -0.1700    0.8765 H       1  UNL1        0.0000
     43 C           6.4028    0.6253    1.4578 C.3     1  UNL1        0.0000
     44 H           5.9495   -0.3607    1.5158 H       1  UNL1        0.0000
     45 H           6.6377    0.8259    0.4163 H       1  UNL1        0.0000
     46 H           5.6563    1.3475    1.7741 H       1  UNL1        0.0000
     47 C           1.4318   -2.5423    4.3663 C.3     1  UNL1        0.0000
     48 H           2.1257   -1.8633    3.8825 H       1  UNL1        0.0000
     49 H           0.6609   -2.8028    3.6466 H       1  UNL1        0.0000
     50 H           1.9757   -3.4492    4.6154 H       1  UNL1        0.0000
     51 C          -0.5166   -2.9957    6.7086 C.3     1  UNL1        0.0000
     52 H          -1.2675   -3.3045    5.9891 H       1  UNL1        0.0000
     53 H          -1.0366   -2.5777    7.5639 H       1  UNL1        0.0000
     54 H           0.0065   -3.8876    7.0379 H       1  UNL1        0.0000
     55 C          -0.3080   -0.1474    5.4937 C.3     1  UNL1        0.0000
     56 H           0.3683    0.6387    5.1664 H       1  UNL1        0.0000
     57 H          -0.8421    0.2287    6.3626 H       1  UNL1        0.0000
     58 H          -1.0319   -0.3131    4.7012 H       1  UNL1        0.0000
     59 C           3.3718    6.7289    9.1234 C.3     1  UNL1        0.0000
     60 H           3.1092    7.7688    8.9521 H       1  UNL1        0.0000
     61 H           2.8588    6.3990   10.0227 H       1  UNL1        0.0000
     62 H           2.9786    6.1497    8.2943 H       1  UNL1        0.0000
     63 C           5.7853    7.2727   10.9401 C.3     1  UNL1        0.0000
     64 H           5.4975    8.3179   10.9783 H       1  UNL1        0.0000
     65 H           6.8593    7.2262   11.0862 H       1  UNL1        0.0000
     66 H           5.3118    6.7733   11.7788 H       1  UNL1        0.0000
     67 C           6.2175    7.4477    7.9054 C.3     1  UNL1        0.0000
     68 H           5.9590    8.5026    7.8992 H       1  UNL1        0.0000
     69 H           5.9832    7.0465    6.9255 H       1  UNL1        0.0000
     70 H           7.2918    7.3689    8.0499 H       1  UNL1        0.0000
@<TRIPOS>BOND
     1    45    43    1
     2    42    39    1
     3    43    44    1
     4    43    46    1
     5    43     5    1
     6    38    35    1
     7    40    39    1
     8    39    41    1
     9    39     5    1
    10    35     5    1
    11    35    37    1
    12    35    36    1
    13     5     9    1
    14    49    47    1
    15    48    47    1
    16     9    10   ar
    17     9     8   ar
    18    47    50    1
    19    47     6    1
    20     2     8    1
    21    11    10    1
    22    58    55    1
    23    10    12   ar
    24     8    16   ar
    25    56    55    1
    26     3    17    1
    27    55     6    1
    28    55    57    1
    29     6    51    1
    30     6    18    1
    31    52    51    1
    32    12    13    1
    33    12    14   ar
    34    16    14   ar
    35    16     1    1
    36    51    54    1
    37    51    53    1
    38     4    26    1
    39    17    18   ar
    40    17    25   ar
    41    14    15    1
    42     1    25    1
    43     1    34    1
    44    69    67    1
    45    18    19   ar
    46    25    23   ar
    47    68    67    1
    48    67    70    1
    49    67     7    1
    50    26    34   ar
    51    26    27   ar
    52    34    32   ar
    53    62    59    1
    54    19    20    1
    55    19    21   ar
    56    60    59    1
    57    59     7    1
    58    59    61    1
    59    23    21   ar
    60    23    24    1
    61     7    27    1
    62     7    63    1
    63    33    32    1
    64    27    28   ar
    65    32    30   ar
    66    21    22    1
    67    30    28   ar
    68    30    31    1
    69    28    29    1
    70    63    64    1
    71    63    65    1
    72    63    66    1
