@<TRIPOS>MOLECULE
1,2,3,4
 70 72 0 0 0
SMALL
GASTEIGER

@<TRIPOS>ATOM
      1 S           2.0752    1.8220   12.5419 S.3     1  UNL1        0.0000
      2 S           0.5263    1.7805    9.1295 S.3     1  UNL1        0.0000
      3 S           4.2062    1.5730    9.5033 S.3     1  UNL1        0.0000
      4 P           2.3726    3.7182   10.3266 P.3     1  UNL1        0.0000
      5 SI          2.1734    2.5634   15.7111 Si      1  UNL1        0.0000
      6 SI         -2.0843    2.5128    7.3264 Si      1  UNL1        0.0000
      7 SI          6.9849    1.9744    7.8568 Si      1  UNL1        0.0000
      8 C           2.5257    4.4445   11.9826 C.ar    1  UNL1        0.0000
      9 C           2.8078    5.7647   12.2958 C.ar    1  UNL1        0.0000
     10 H           2.9886    6.4869   11.5136 H       1  UNL1        0.0000
     11 C           2.8756    6.1394   13.6270 C.ar    1  UNL1        0.0000
     12 H           3.0938    7.1656   13.8852 H       1  UNL1        0.0000
     13 C           2.6708    5.2022   14.6260 C.ar    1  UNL1        0.0000
     14 H           2.7265    5.5144   15.6576 H       1  UNL1        0.0000
     15 C           2.4100    3.8651   14.3449 C.ar    1  UNL1        0.0000
     16 C           2.3457    3.5025   13.0019 C.ar    1  UNL1        0.0000
     17 C           2.3151    3.4341   17.4014 C.3     1  UNL1        0.0000
     18 H           2.1840    2.7140   18.2019 H       1  UNL1        0.0000
     19 H           1.5572    4.2004   17.5273 H       1  UNL1        0.0000
     20 H           3.2866    3.8975   17.5387 H       1  UNL1        0.0000
     21 C           3.5564    1.2515   15.6124 C.3     1  UNL1        0.0000
     22 H           4.5293    1.6921   15.8108 H       1  UNL1        0.0000
     23 H           3.5974    0.7953   14.6293 H       1  UNL1        0.0000
     24 H           3.3968    0.4616   16.3402 H       1  UNL1        0.0000
     25 C           0.4334    1.7900   15.5903 C.3     1  UNL1        0.0000
     26 H           0.2816    1.3051   14.6321 H       1  UNL1        0.0000
     27 H          -0.3389    2.5456   15.7019 H       1  UNL1        0.0000
     28 H           0.2827    1.0476   16.3683 H       1  UNL1        0.0000
     29 C           0.9097    4.4417    9.5325 C.ar    1  UNL1        0.0000
     30 C           0.5607    5.7818    9.4787 C.ar    1  UNL1        0.0000
     31 H           1.1584    6.5247    9.9859 H       1  UNL1        0.0000
     32 C          -0.5786    6.1515    8.7840 C.ar    1  UNL1        0.0000
     33 H          -0.8647    7.1923    8.7375 H       1  UNL1        0.0000
     34 C          -1.3483    5.1924    8.1467 C.ar    1  UNL1        0.0000
     35 H          -2.2250    5.5023    7.5988 H       1  UNL1        0.0000
     36 C          -1.0377    3.8376    8.2014 C.ar    1  UNL1        0.0000
     37 C           0.0989    3.4786    8.9213 C.ar    1  UNL1        0.0000
     38 C          -1.0103    1.6067    6.0354 C.3     1  UNL1        0.0000
     39 H          -0.1405    1.1506    6.4960 H       1  UNL1        0.0000
     40 H          -0.6552    2.2933    5.2721 H       1  UNL1        0.0000
     41 H          -1.5735    0.8231    5.5377 H       1  UNL1        0.0000
     42 C          -3.5077    3.3829    6.4034 C.3     1  UNL1        0.0000
     43 H          -4.1108    2.6509    5.8771 H       1  UNL1        0.0000
     44 H          -3.1398    4.0896    5.6668 H       1  UNL1        0.0000
     45 H          -4.1651    3.9169    7.0816 H       1  UNL1        0.0000
     46 C          -2.8552    1.3144    8.5959 C.3     1  UNL1        0.0000
     47 H          -3.4292    0.5387    8.0979 H       1  UNL1        0.0000
     48 H          -3.5242    1.8370    9.2737 H       1  UNL1        0.0000
     49 H          -2.0917    0.8311    9.1955 H       1  UNL1        0.0000
     50 C           3.8124    4.2602    9.3625 C.ar    1  UNL1        0.0000
     51 C           4.0974    5.5505    8.9450 C.ar    1  UNL1        0.0000
     52 H           3.4169    6.3600    9.1638 H       1  UNL1        0.0000
     53 C           5.2563    5.7827    8.2239 C.ar    1  UNL1        0.0000
     54 H           5.4905    6.7839    7.8921 H       1  UNL1        0.0000
     55 C           6.1112    4.7353    7.9230 C.ar    1  UNL1        0.0000
     56 H           7.0110    4.9369    7.3622 H       1  UNL1        0.0000
     57 C           5.8409    3.4256    8.3058 C.ar    1  UNL1        0.0000
     58 C           4.6700    3.2065    9.0272 C.ar    1  UNL1        0.0000
     59 C           6.0675    0.7509    6.7147 C.3     1  UNL1        0.0000
     60 H           6.7015   -0.0919    6.4563 H       1  UNL1        0.0000
     61 H           5.7630    1.2316    5.7893 H       1  UNL1        0.0000
     62 H           5.1741    0.3624    7.1913 H       1  UNL1        0.0000
     63 C           7.6389    1.1364    9.4411 C.3     1  UNL1        0.0000
     64 H           6.8258    0.7953   10.0727 H       1  UNL1        0.0000
     65 H           8.2438    1.8237   10.0258 H       1  UNL1        0.0000
     66 H           8.2571    0.2770    9.1995 H       1  UNL1        0.0000
     67 C           8.4815    2.6616    6.8957 C.3     1  UNL1        0.0000
     68 H           9.0460    3.3777    7.4837 H       1  UNL1        0.0000
     69 H           8.1832    3.1468    5.9721 H       1  UNL1        0.0000
     70 H           9.1565    1.8539    6.6338 H       1  UNL1        0.0000
@<TRIPOS>BOND
     1    40    38    1
     2    41    38    1
     3    44    42    1
     4    61    59    1
     5    43    42    1
     6    69    67    1
     7    38    39    1
     8    38     6    1
     9    42    45    1
    10    42     6    1
    11    60    59    1
    12    70    67    1
    13    59    62    1
    14    59     7    1
    15    67    68    1
    16    67     7    1
    17     6    36    1
    18     6    46    1
    19    56    55    1
    20    35    34    1
    21     7    57    1
    22     7    63    1
    23    54    53    1
    24    55    53   ar
    25    55    57   ar
    26    47    46    1
    27    34    36   ar
    28    34    32   ar
    29    36    37   ar
    30    53    51   ar
    31    57    58   ar
    32    46    49    1
    33    46    48    1
    34    33    32    1
    35    32    30   ar
    36    37     2    1
    37    37    29   ar
    38    51    52    1
    39    51    50   ar
    40    58    50   ar
    41    58     3    1
    42    66    63    1
    43    50     4    1
    44    63    65    1
    45    63    64    1
    46    30    29   ar
    47    30    31    1
    48    29     4    1
    49     4     8    1
    50    10     9    1
    51     8     9   ar
    52     8    16   ar
    53     9    11   ar
    54     1    16    1
    55    16    15   ar
    56    11    12    1
    57    11    13   ar
    58    15    13   ar
    59    15     5    1
    60    13    14    1
    61    23    21    1
    62    26    25    1
    63    25    27    1
    64    25     5    1
    65    25    28    1
    66    21     5    1
    67    21    22    1
    68    21    24    1
    69     5    17    1
    70    17    19    1
    71    17    20    1
    72    17    18    1
