@<TRIPOS>MOLECULE
1,2,3,4
 70 72 0 0 0
SMALL
GASTEIGER

@<TRIPOS>ATOM
      1 S           2.7229   15.2028    8.4457 S.3     1  UNL1        0.0000
      2 S           5.1934   14.1763   10.8451 S.3     1  UNL1        0.0000
      3 S           5.9341   15.8888    6.9609 S.3     1  UNL1        0.0000
      4 P           4.9660   16.8580    9.5586 P.3     1  UNL1        0.0000
      5 SI         -0.2256   16.2935    7.7187 Si      1  UNL1        0.0000
      6 SI          5.4919   13.6232   13.9812 Si      1  UNL1        0.0000
      7 SI          7.9396   17.4636    5.0029 Si      1  UNL1        0.0000
      8 C           2.3960   16.8764    8.6830 C.ar    1  UNL1        0.0000
      9 C           3.4146   17.7144    9.1789 C.ar    1  UNL1        0.0000
     10 C           3.2081   19.0764    9.3191 C.ar    1  UNL1        0.0000
     11 H           4.0169   19.7123    9.6559 H       1  UNL1        0.0000
     12 C           1.9726   19.6159    9.0079 C.ar    1  UNL1        0.0000
     13 H           1.8012   20.6792    9.1132 H       1  UNL1        0.0000
     14 C           0.9567   18.7855    8.5549 C.ar    1  UNL1        0.0000
     15 H          -0.0056   19.2189    8.3193 H       1  UNL1        0.0000
     16 C           1.1369   17.4222    8.3772 C.ar    1  UNL1        0.0000
     17 C          -0.7027   14.9365    8.9763 C.3     1  UNL1        0.0000
     18 H          -1.4311   14.2459    8.5606 H       1  UNL1        0.0000
     19 H          -1.1280   15.3670    9.8786 H       1  UNL1        0.0000
     20 H           0.1752   14.3690    9.2618 H       1  UNL1        0.0000
     21 C          -1.8095   17.3332    7.4258 C.3     1  UNL1        0.0000
     22 H          -1.6474   18.1163    6.6925 H       1  UNL1        0.0000
     23 H          -2.1593   17.8003    8.3407 H       1  UNL1        0.0000
     24 H          -2.6102   16.7010    7.0558 H       1  UNL1        0.0000
     25 C           0.2384   15.5320    6.0290 C.3     1  UNL1        0.0000
     26 H           0.3574   16.3005    5.2705 H       1  UNL1        0.0000
     27 H          -0.5193   14.8347    5.6828 H       1  UNL1        0.0000
     28 H           1.1779   14.9975    6.1086 H       1  UNL1        0.0000
     29 C           5.2244   15.5593   11.9009 C.ar    1  UNL1        0.0000
     30 C           5.1074   16.8580   11.3690 C.ar    1  UNL1        0.0000
     31 C           5.0420   17.9542   12.2117 C.ar    1  UNL1        0.0000
     32 H           4.8906   18.9440   11.8030 H       1  UNL1        0.0000
     33 C           5.1635   17.7767   13.5799 C.ar    1  UNL1        0.0000
     34 H           5.1278   18.6315   14.2426 H       1  UNL1        0.0000
     35 C           5.3262   16.5008   14.0961 C.ar    1  UNL1        0.0000
     36 H           5.4225   16.3761   15.1658 H       1  UNL1        0.0000
     37 C           5.3456   15.3740   13.2850 C.ar    1  UNL1        0.0000
     38 C           7.0517   12.7139   13.3533 C.3     1  UNL1        0.0000
     39 H           7.0229   12.6121   12.2748 H       1  UNL1        0.0000
     40 H           7.1286   11.7194   13.7839 H       1  UNL1        0.0000
     41 H           7.9553   13.2592   13.6113 H       1  UNL1        0.0000
     42 C           5.6856   13.7363   15.8843 C.3     1  UNL1        0.0000
     43 H           6.5666   14.3026   16.1686 H       1  UNL1        0.0000
     44 H           5.7856   12.7429   16.3099 H       1  UNL1        0.0000
     45 H           4.8240   14.2040   16.3492 H       1  UNL1        0.0000
     46 C           3.9142   12.5947   13.6622 C.3     1  UNL1        0.0000
     47 H           3.0627   13.0088   14.1947 H       1  UNL1        0.0000
     48 H           4.0402   11.5646   13.9837 H       1  UNL1        0.0000
     49 H           3.6726   12.5900   12.6058 H       1  UNL1        0.0000
     50 C           6.6000   17.3962    7.5228 C.ar    1  UNL1        0.0000
     51 C           6.2419   17.8924    8.7927 C.ar    1  UNL1        0.0000
     52 C           6.8228   19.0438    9.2894 C.ar    1  UNL1        0.0000
     53 H           6.5690   19.3966   10.2800 H       1  UNL1        0.0000
     54 C           7.7552   19.7246    8.5214 C.ar    1  UNL1        0.0000
     55 H           8.2280   20.6175    8.9093 H       1  UNL1        0.0000
     56 C           8.0747   19.2595    7.2564 C.ar    1  UNL1        0.0000
     57 H           8.7905   19.8095    6.6614 H       1  UNL1        0.0000
     58 C           7.5137   18.1027    6.7286 C.ar    1  UNL1        0.0000
     59 C           9.1743   18.6798    4.1844 C.3     1  UNL1        0.0000
     60 H           8.7581   19.6782    4.0986 H       1  UNL1        0.0000
     61 H           9.4230   18.3435    3.1829 H       1  UNL1        0.0000
     62 H          10.1017   18.7519    4.7432 H       1  UNL1        0.0000
     63 C           8.8280   15.7712    5.0514 C.3     1  UNL1        0.0000
     64 H           9.7353   15.8189    5.6471 H       1  UNL1        0.0000
     65 H           9.1013   15.4395    4.0536 H       1  UNL1        0.0000
     66 H           8.1816   15.0205    5.4908 H       1  UNL1        0.0000
     67 C           6.4065   17.4017    3.8670 C.3     1  UNL1        0.0000
     68 H           5.6349   16.7840    4.3117 H       1  UNL1        0.0000
     69 H           6.6499   16.9880    2.8923 H       1  UNL1        0.0000
     70 H           5.9903   18.3936    3.7144 H       1  UNL1        0.0000
@<TRIPOS>BOND
     1    69    67    1
     2    61    59    1
     3    70    67    1
     4    67    68    1
     5    67     7    1
     6    65    63    1
     7    60    59    1
     8    59    62    1
     9    59     7    1
    10     7    63    1
    11     7    58    1
    12    63    66    1
    13    63    64    1
    14    26    25    1
    15    27    25    1
    16    25    28    1
    17    25     5    1
    18    57    56    1
    19    22    21    1
    20    58    56   ar
    21    58    50   ar
    22     3    50    1
    23    24    21    1
    24    56    54   ar
    25    21     5    1
    26    21    23    1
    27    50    51   ar
    28     5    16    1
    29     5    17    1
    30    15    14    1
    31    16    14   ar
    32    16     8   ar
    33     1     8    1
    34    54    55    1
    35    54    52   ar
    36    14    12   ar
    37    18    17    1
    38     8     9   ar
    39    51    52   ar
    40    51     4    1
    41    17    20    1
    42    17    19    1
    43    12    13    1
    44    12    10   ar
    45     9    10   ar
    46     9     4    1
    47    52    53    1
    48    10    11    1
    49     4    30    1
    50     2    29    1
    51    30    29   ar
    52    30    31   ar
    53    32    31    1
    54    29    37   ar
    55    31    33   ar
    56    39    38    1
    57    49    46    1
    58    37     6    1
    59    37    35   ar
    60    38    41    1
    61    38    40    1
    62    38     6    1
    63    33    35   ar
    64    33    34    1
    65    46     6    1
    66    46    48    1
    67    46    47    1
    68     6    42    1
    69    35    36    1
    70    42    43    1
    71    42    44    1
    72    42    45    1
