@<TRIPOS>MOLECULE
18,19,20,22,24,33,36,38,49
 49 52 0 0 0
SMALL
GASTEIGER

@<TRIPOS>ATOM
      1 C           2.0208   -0.1571   -1.2616 C.3     1  UNL1        0.0000
      2 H           2.2271    0.5301   -2.0738 H       1  UNL1        0.0000
      3 H           0.9919   -0.0077   -0.9534 H       1  UNL1        0.0000
      4 H           2.0992   -1.1644   -1.6569 H       1  UNL1        0.0000
      5 C           4.9466   -0.6745   -0.2520 C.3     1  UNL1        0.0000
      6 H           5.4606   -0.1006   -1.0152 H       1  UNL1        0.0000
      7 H           4.8322   -1.6873   -0.6251 H       1  UNL1        0.0000
      8 H           5.5792   -0.7135    0.6302 H       1  UNL1        0.0000
      9 C           0.5385   -2.5943    1.6126 C.3     1  UNL1        0.0000
     10 H           0.1039   -3.3886    2.2077 H       1  UNL1        0.0000
     11 H           0.7781   -3.0057    0.6380 H       1  UNL1        0.0000
     12 H          -0.2237   -1.8352    1.4706 H       1  UNL1        0.0000
     13 C           3.4572   -3.2209    2.5874 C.3     1  UNL1        0.0000
     14 H           3.2085   -3.9625    3.3388 H       1  UNL1        0.0000
     15 H           4.4124   -2.7738    2.8467 H       1  UNL1        0.0000
     16 H           3.5772   -3.7414    1.6420 H       1  UNL1        0.0000
     17 SI          3.2593    0.0919    0.1648 Si      1  UNL1        0.0000
     18 O           2.6208   -0.5871    1.5515 O.3     1  UNL1        0.0000
     19 C           3.3357    1.7894    0.9574 C.3     1  UNL1        0.0000
     20 C           4.5000    2.4162    1.4767 C.2     1  UNL1        0.0000
     21 H           5.5101    2.1836    1.1609 H       1  UNL1        0.0000
     22 C           4.1549    3.4297    2.3691 C.2     1  UNL1        0.0000
     23 H           4.8366    4.1062    2.8632 H       1  UNL1        0.0000
     24 C           2.7371    3.4478    2.4853 C.3     1  UNL1        0.0000
     25 C           1.8462    4.2366    3.2390 C.2     1  UNL1        0.0000
     26 H           2.2319    4.9836    3.9200 H       1  UNL1        0.0000
     27 C           0.4940    4.0711    3.0591 C.2     1  UNL1        0.0000
     28 H          -0.2016    4.6810    3.6166 H       1  UNL1        0.0000
     29 C          -0.0132    3.1416    2.1324 C.2     1  UNL1        0.0000
     30 H          -1.0828    3.0764    1.9944 H       1  UNL1        0.0000
     31 C           0.8210    2.3294    1.4015 C.2     1  UNL1        0.0000
     32 H           0.4198    1.6420    0.6669 H       1  UNL1        0.0000
     33 C           2.2159    2.4407    1.5757 C.3     1  UNL1        0.0000
     34 SI          2.1020   -1.8972    2.4513 Si      1  UNL1        0.0000
     35 C           1.7280   -0.7947    3.9257 C.3     1  UNL1        0.0000
     36 C           0.8467    0.3216    3.7867 C.2     1  UNL1        0.0000
     37 H           0.0782    0.3981    3.0253 H       1  UNL1        0.0000
     38 C           0.9895    1.1931    4.8791 C.2     1  UNL1        0.0000
     39 H           0.3645    2.0489    5.0992 H       1  UNL1        0.0000
     40 C           1.9271    0.6039    5.7762 C.ar    1  UNL1        0.0000
     41 C           2.3754    0.9758    7.0545 C.ar    1  UNL1        0.0000
     42 H           1.9824    1.8645    7.5279 H       1  UNL1        0.0000
     43 C           3.3213    0.2011    7.6768 C.ar    1  UNL1        0.0000
     44 H           3.6782    0.4750    8.6581 H       1  UNL1        0.0000
     45 C           3.8503   -0.9434    7.0572 C.ar    1  UNL1        0.0000
     46 H           4.6077   -1.5125    7.5754 H       1  UNL1        0.0000
     47 C           3.4184   -1.3542    5.8199 C.ar    1  UNL1        0.0000
     48 H           3.8101   -2.2538    5.3641 H       1  UNL1        0.0000
     49 C           2.4306   -0.5986    5.1605 C.ar    1  UNL1        0.0000
@<TRIPOS>BOND
     1     2     1    1
     2     4     1    1
     3     1     3    1
     4     1    17    1
     5     6     5    1
     6     7     5    1
     7     5    17    1
     8     5     8    1
     9    17    19    1
    10    17    18    1
    11    11     9    1
    12    32    31    1
    13    19    20    1
    14    19    33    1
    15    21    20    1
    16    31    33    1
    17    31    29    2
    18    12     9    1
    19    20    22    2
    20    18    34    1
    21    33    24    1
    22     9    10    1
    23     9    34    1
    24    16    13    1
    25    30    29    1
    26    29    27    1
    27    22    24    1
    28    22    23    1
    29    34    13    1
    30    34    35    1
    31    24    25    1
    32    13    15    1
    33    13    14    1
    34    37    36    1
    35    27    25    2
    36    27    28    1
    37    25    26    1
    38    36    35    1
    39    36    38    2
    40    35    49    1
    41    38    39    1
    42    38    40    1
    43    49    40   ar
    44    49    47   ar
    45    48    47    1
    46    40    41   ar
    47    47    45   ar
    48    41    42    1
    49    41    43   ar
    50    45    46    1
    51    45    43   ar
    52    43    44    1
