@<TRIPOS>MOLECULE
3,4,5,9,11,13,14,16,18,20
 37 38 0 0 0
SMALL
GASTEIGER

@<TRIPOS>ATOM
      1 SI         11.2958    1.3641    5.8235 Si      1  UNL1        0.0000
      2 SI          9.1765   -1.0932    6.0571 Si      1  UNL1        0.0000
      3 O          10.2162    0.1184    5.5759 O.3     1  UNL1        0.0000
      4 C          10.6404    2.3505    4.3615 C.3     1  UNL1        0.0000
      5 C          11.1730    2.4282    3.0473 C.2     1  UNL1        0.0000
      6 H          12.1928    2.1876    2.7657 H       1  UNL1        0.0000
      7 C          10.2057    2.9996    2.2065 C.2     1  UNL1        0.0000
      8 H          10.3488    3.2709    1.1694 H       1  UNL1        0.0000
      9 C           9.0346    3.2207    2.9612 C.3     1  UNL1        0.0000
     10 H           8.1460    3.7322    2.6084 H       1  UNL1        0.0000
     11 C           9.3013    2.8315    4.2911 C.3     1  UNL1        0.0000
     12 H           8.6695    3.0360    5.1480 H       1  UNL1        0.0000
     13 C           7.9725   -0.7513    4.6523 C.3     1  UNL1        0.0000
     14 C           7.2841    0.4874    4.5064 C.3     1  UNL1        0.0000
     15 H           7.0603    1.1723    5.3165 H       1  UNL1        0.0000
     16 C           6.7413    0.5477    3.2053 C.3     1  UNL1        0.0000
     17 H           6.0682    1.3082    2.8256 H       1  UNL1        0.0000
     18 C           7.0744   -0.6540    2.5455 C.2     1  UNL1        0.0000
     19 H           6.7376   -0.9475    1.5605 H       1  UNL1        0.0000
     20 C           7.8618   -1.4299    3.4097 C.2     1  UNL1        0.0000
     21 H           8.2318   -2.4285    3.2022 H       1  UNL1        0.0000
     22 C          13.0787    0.7289    5.6745 C.3     1  UNL1        0.0000
     23 H          13.2134    0.0939    4.8036 H       1  UNL1        0.0000
     24 H          13.3530    0.1479    6.5496 H       1  UNL1        0.0000
     25 H          13.7760    1.5564    5.5995 H       1  UNL1        0.0000
     26 C          10.9541    2.1692    7.5107 C.3     1  UNL1        0.0000
     27 H          11.5878    3.0366    7.6514 H       1  UNL1        0.0000
     28 H          11.1652    1.4727    8.3146 H       1  UNL1        0.0000
     29 H           9.9238    2.4921    7.6171 H       1  UNL1        0.0000
     30 C          10.0642   -2.7706    6.0140 C.3     1  UNL1        0.0000
     31 H           9.3574   -3.5832    6.1417 H       1  UNL1        0.0000
     32 H          10.7915   -2.8391    6.8171 H       1  UNL1        0.0000
     33 H          10.5940   -2.9270    5.0788 H       1  UNL1        0.0000
     34 C           8.4840   -0.6831    7.7787 C.3     1  UNL1        0.0000
     35 H           8.0414    0.3065    7.8242 H       1  UNL1        0.0000
     36 H           9.2693   -0.7265    8.5253 H       1  UNL1        0.0000
     37 H           7.7214   -1.3991    8.0610 H       1  UNL1        0.0000
@<TRIPOS>BOND
     1     8     7    1
     2    19    18    1
     3     7     9    1
     4     7     5    2
     5    18    16    1
     6    18    20    2
     7    10     9    1
     8     6     5    1
     9    17    16    1
    10     9    11    1
    11     5     4    1
    12    21    20    1
    13    16    14    1
    14    20    13    1
    15    11     4    1
    16    11    12    1
    17     4     1    1
    18    14    13    1
    19    14    15    1
    20    13     2    1
    21    23    22    1
    22    33    30    1
    23     3     1    1
    24     3     2    1
    25    25    22    1
    26    22     1    1
    27    22    24    1
    28     1    26    1
    29    30     2    1
    30    30    31    1
    31    30    32    1
    32     2    34    1
    33    26    29    1
    34    26    27    1
    35    26    28    1
    36    34    35    1
    37    34    37    1
    38    34    36    1
