@<TRIPOS>MOLECULE
1,3,4,52,54
 94 96 0 0 0
SMALL
GASTEIGER

@<TRIPOS>ATOM
      1 P           3.1125   10.5799    7.9489 P.3     1  UNL1        0.0000
      2 P           8.7180   10.4436    6.0512 P.3     1  UNL1        0.0000
      3 P           5.1062    8.8341    5.4525 P.3     1  UNL1        0.0000
      4 C           6.2211   11.5494    6.6697 C.3     1  UNL1        0.0000
      5 C           2.4930    9.0027    8.8092 C.3     1  UNL1        0.0000
      6 H           1.9672    8.4511    8.0168 H       1  UNL1        0.0000
      7 C           6.6264    9.0728    7.7318 C.ar    1  UNL1        0.0000
      8 C           6.3262    8.1914    6.6667 C.ar    1  UNL1        0.0000
      9 C           6.1982    8.9379    3.9133 C.3     1  UNL1        0.0000
     10 H           6.8711    9.7578    4.1969 H       1  UNL1        0.0000
     11 C           5.7736   12.1039   11.3671 C.ar    1  UNL1        0.0000
     12 H           6.4468   12.4213   12.1545 H       1  UNL1        0.0000
     13 C           4.0603   11.2772    9.3611 C.ar    1  UNL1        0.0000
     14 C           3.7048    8.1885    9.2494 C.3     1  UNL1        0.0000
     15 H           4.1991    8.6728   10.0900 H       1  UNL1        0.0000
     16 H           4.4257    8.1091    8.4396 H       1  UNL1        0.0000
     17 H           3.4089    7.1840    9.5564 H       1  UNL1        0.0000
     18 C           5.4447   11.0888    9.1883 C.ar    1  UNL1        0.0000
     19 C           7.3011   11.5765    5.7239 C.2     1  UNL1        0.0000
     20 C           6.2770   11.5104   10.2218 C.ar    1  UNL1        0.0000
     21 H           7.3495   11.3940   10.1308 H       1  UNL1        0.0000
     22 C           7.4371    8.5664    8.7531 C.ar    1  UNL1        0.0000
     23 H           7.6478    9.1891    9.6113 H       1  UNL1        0.0000
     24 C           4.4124   12.3176   11.4982 C.ar    1  UNL1        0.0000
     25 H           4.0185   12.8021   12.3835 H       1  UNL1        0.0000
     26 C           1.8301   13.0166    7.5889 C.3     1  UNL1        0.0000
     27 H           2.3147   13.0049    6.6118 H       1  UNL1        0.0000
     28 H           2.5005   13.4904    8.3050 H       1  UNL1        0.0000
     29 H           0.9195   13.6141    7.5229 H       1  UNL1        0.0000
     30 C           5.3876    9.4075    2.7096 C.3     1  UNL1        0.0000
     31 H           6.0527    9.7689    1.9240 H       1  UNL1        0.0000
     32 H           4.7263   10.2211    3.0004 H       1  UNL1        0.0000
     33 H           4.7926    8.5947    2.2954 H       1  UNL1        0.0000
     34 C           3.5555   11.9073   10.4907 C.ar    1  UNL1        0.0000
     35 H           2.4946   12.0924   10.5963 H       1  UNL1        0.0000
     36 C           9.2852   11.3682    7.6009 C.3     1  UNL1        0.0000
     37 H           8.3446   11.4081    8.1635 H       1  UNL1        0.0000
     38 C           6.8708    6.9158    6.6206 C.ar    1  UNL1        0.0000
     39 H           6.6322    6.2495    5.8032 H       1  UNL1        0.0000
     40 C           1.5134   11.5867    8.0046 C.3     1  UNL1        0.0000
     41 H           1.0752   11.5913    9.0080 H       1  UNL1        0.0000
     42 C          10.0161   10.9694    4.7694 C.3     1  UNL1        0.0000
     43 H          10.0455   12.0593    4.6670 H       1  UNL1        0.0000
     44 C           7.9641    7.2901    8.7134 C.ar    1  UNL1        0.0000
     45 H           8.5868    6.9341    9.5259 H       1  UNL1        0.0000
     46 C           5.3353   13.5543    5.5202 C.2     1  UNL1        0.0000
     47 H           4.6201   14.3676    5.4906 H       1  UNL1        0.0000
     48 C           0.5419   10.9611    7.0118 C.3     1  UNL1        0.0000
     49 H          -0.3434   11.5852    6.8818 H       1  UNL1        0.0000
     50 H           0.2189    9.9730    7.3357 H       1  UNL1        0.0000
     51 H           1.0445   10.8623    6.0492 H       1  UNL1        0.0000
     52 C           5.2773   12.6301    6.5710 C.3     1  UNL1        0.0000
     53 H           4.7252   12.9235    7.4603 H       1  UNL1        0.0000
     54 B           5.9680   10.5092    7.7963 B       1  UNL1        0.0000
     55 C           9.6613   10.3306    3.4275 C.3     1  UNL1        0.0000
     56 H          10.3810   10.6254    2.6610 H       1  UNL1        0.0000
     57 H           8.6682   10.6172    3.0924 H       1  UNL1        0.0000
     58 H           9.6853    9.2465    3.5217 H       1  UNL1        0.0000
     59 C          11.3971   10.4682    5.1863 C.3     1  UNL1        0.0000
     60 H          11.3405    9.4277    5.5037 H       1  UNL1        0.0000
     61 H          11.8096   11.0557    6.0018 H       1  UNL1        0.0000
     62 H          12.0909   10.5320    4.3458 H       1  UNL1        0.0000
     63 C           7.0642    7.7371    3.5459 C.3     1  UNL1        0.0000
     64 H           6.4702    6.8413    3.3704 H       1  UNL1        0.0000
     65 H           7.7912    7.5345    4.3276 H       1  UNL1        0.0000
     66 H           7.6066    7.9570    2.6251 H       1  UNL1        0.0000
     67 C           7.6960    6.4615    7.6367 C.ar    1  UNL1        0.0000
     68 H           8.1052    5.4595    7.5994 H       1  UNL1        0.0000
     69 C           1.5465    9.1718    9.9943 C.3     1  UNL1        0.0000
     70 H           1.3534    8.1949   10.4419 H       1  UNL1        0.0000
     71 H           0.5890    9.5958    9.7016 H       1  UNL1        0.0000
     72 H           1.9987    9.8036   10.7557 H       1  UNL1        0.0000
     73 C           7.3061   12.4855    4.6884 C.2     1  UNL1        0.0000
     74 H           8.1090   12.5047    3.9662 H       1  UNL1        0.0000
     75 C           6.3025   13.4500    4.5534 C.2     1  UNL1        0.0000
     76 H           6.3372   14.1425    3.7224 H       1  UNL1        0.0000
     77 C          10.2805   10.5609    8.4293 C.3     1  UNL1        0.0000
     78 H          11.2810   10.5859    8.0043 H       1  UNL1        0.0000
     79 H           9.9572    9.5234    8.4860 H       1  UNL1        0.0000
     80 H          10.3391   10.9610    9.4428 H       1  UNL1        0.0000
     81 C           4.0263    7.3423    5.0002 C.3     1  UNL1        0.0000
     82 H           4.5392    6.7512    4.2317 H       1  UNL1        0.0000
     83 C           9.7521   12.8018    7.3778 C.3     1  UNL1        0.0000
     84 H           9.8412   13.3152    8.3364 H       1  UNL1        0.0000
     85 H           9.0297   13.3428    6.7691 H       1  UNL1        0.0000
     86 H          10.7230   12.8397    6.8869 H       1  UNL1        0.0000
     87 C           2.7353    7.9191    4.4236 C.3     1  UNL1        0.0000
     88 H           2.0287    7.1259    4.1738 H       1  UNL1        0.0000
     89 H           2.9235    8.5138    3.5345 H       1  UNL1        0.0000
     90 H           2.2818    8.5823    5.1627 H       1  UNL1        0.0000
     91 C           3.6739    6.4321    6.1716 C.3     1  UNL1        0.0000
     92 H           3.0525    6.9704    6.8802 H       1  UNL1        0.0000
     93 H           4.5565    6.0744    6.6951 H       1  UNL1        0.0000
     94 H           3.1115    5.5673    5.8135 H       1  UNL1        0.0000
@<TRIPOS>BOND
     1    31    30    1
     2    33    30    1
     3    66    63    1
     4    56    55    1
     5    30    32    1
     6    30     9    1
     7    57    55    1
     8    64    63    1
     9    55    58    1
    10    55    42    1
    11    89    87    1
    12    63     9    1
    13    63    65    1
    14    76    75    1
    15     9    10    1
    16     9     3    1
    17    74    73    1
    18    88    87    1
    19    82    81    1
    20    62    59    1
    21    87    81    1
    22    87    90    1
    23    75    73    1
    24    75    46    2
    25    43    42    1
    26    73    19    2
    27    42    59    1
    28    42     2    1
    29    81     3    1
    30    81    91    1
    31    59    60    1
    32    59    61    1
    33     3     8    1
    34    47    46    1
    35    46    52    1
    36    19     2    1
    37    19     4    1
    38    39    38    1
    39    94    91    1
    40    51    48    1
    41     2    36    1
    42    91    93    1
    43    91    92    1
    44    52     4    1
    45    52    53    1
    46    27    26    1
    47    38     8   ar
    48    38    67   ar
    49     8     7   ar
    50     4    54    1
    51    85    83    1
    52    49    48    1
    53    86    83    1
    54    48    50    1
    55    48    40    1
    56    83    36    1
    57    83    84    1
    58    29    26    1
    59    26    40    1
    60    26    28    1
    61    68    67    1
    62    36    37    1
    63    36    77    1
    64    67    44   ar
    65     7    54    1
    66     7    22   ar
    67    54    18    1
    68     1    40    1
    69     1     5    1
    70     1    13    1
    71    78    77    1
    72    40    41    1
    73     6     5    1
    74    77    79    1
    75    77    80    1
    76    16    14    1
    77    44    22   ar
    78    44    45    1
    79    22    23    1
    80     5    14    1
    81     5    69    1
    82    18    13   ar
    83    18    20   ar
    84    14    17    1
    85    14    15    1
    86    13    34   ar
    87    71    69    1
    88    69    70    1
    89    69    72    1
    90    21    20    1
    91    20    11   ar
    92    34    35    1
    93    34    24   ar
    94    11    24   ar
    95    11    12    1
    96    24    25    1
