@<TRIPOS>MOLECULE
1,2,16,21,36
 74 76 0 0 0
SMALL
GASTEIGER

@<TRIPOS>ATOM
      1 P           2.9071    8.2318   11.3632 P.3     1  UNL1        0.0000
      2 P           2.8357    7.0359   14.7314 P.3     1  UNL1        0.0000
      3 C           1.1851    6.7157   15.4609 C.ar    1  UNL1        0.0000
      4 C           1.3023    7.5273   10.8037 C.ar    1  UNL1        0.0000
      5 C           0.1559    7.0730   14.5744 C.ar    1  UNL1        0.0000
      6 C           3.2822    9.4039    9.9426 C.3     1  UNL1        0.0000
      7 H           3.3870    8.8283    9.0169 H       1  UNL1        0.0000
      8 C           4.0829    6.7904   10.9910 C.3     1  UNL1        0.0000
      9 H           3.5604    5.9358   11.4354 H       1  UNL1        0.0000
     10 C          -1.0979    6.3039   10.1329 C.ar    1  UNL1        0.0000
     11 H          -2.0256    5.8100    9.8792 H       1  UNL1        0.0000
     12 C           3.2122    5.2524   14.1990 C.3     1  UNL1        0.0000
     13 H           4.1253    5.3168   13.5955 H       1  UNL1        0.0000
     14 C          -0.8503    6.6868   11.4368 C.ar    1  UNL1        0.0000
     15 H          -1.5997    6.4954   12.1905 H       1  UNL1        0.0000
     16 C           0.5716    9.4253   13.4735 C.3     1  UNL1        0.0000
     17 C           0.0615   10.3372   12.5235 C.2     1  UNL1        0.0000
     18 C           0.3343    7.3265   11.8077 C.ar    1  UNL1        0.0000
     19 C          -1.1545    6.8205   14.9674 C.ar    1  UNL1        0.0000
     20 H          -1.9713    7.1102   14.3209 H       1  UNL1        0.0000
     21 C           1.0059    9.9779   14.7066 C.3     1  UNL1        0.0000
     22 C           5.3849    7.0027   11.7609 C.3     1  UNL1        0.0000
     23 H           5.9184    6.0609   11.8886 H       1  UNL1        0.0000
     24 H           5.1665    7.4289   12.7431 H       1  UNL1        0.0000
     25 H           6.0420    7.6881   11.2321 H       1  UNL1        0.0000
     26 C           3.9330    7.1618   16.2571 C.3     1  UNL1        0.0000
     27 H           3.7666    6.3043   16.9150 H       1  UNL1        0.0000
     28 C          -1.4380    6.2324   16.1880 C.ar    1  UNL1        0.0000
     29 H          -2.4640    6.0433   16.4719 H       1  UNL1        0.0000
     30 C           2.0757    4.7330   13.3196 C.3     1  UNL1        0.0000
     31 H           2.3804    3.8206   12.8069 H       1  UNL1        0.0000
     32 H           1.7751    5.4670   12.5752 H       1  UNL1        0.0000
     33 H           1.2030    4.5047   13.9282 H       1  UNL1        0.0000
     34 C           1.0284    7.1859    9.4835 C.ar    1  UNL1        0.0000
     35 H           1.7421    7.3992    8.7014 H       1  UNL1        0.0000
     36 B           0.5456    7.8800   13.2688 B       1  UNL1        0.0000
     37 C           2.1296   10.3870    9.7771 C.3     1  UNL1        0.0000
     38 H           1.9101   10.8706   10.7251 H       1  UNL1        0.0000
     39 H           1.2300    9.8761    9.4396 H       1  UNL1        0.0000
     40 H           2.3824   11.1528    9.0439 H       1  UNL1        0.0000
     41 C           0.8967   11.3428   14.9630 C.2     1  UNL1        0.0000
     42 C           4.5896   10.1343   10.2322 C.3     1  UNL1        0.0000
     43 H           4.7259   10.9675    9.5428 H       1  UNL1        0.0000
     44 H           5.4421    9.4677   10.1247 H       1  UNL1        0.0000
     45 H           4.5806   10.5175   11.2511 H       1  UNL1        0.0000
     46 C           0.9020    6.1540   16.6993 C.ar    1  UNL1        0.0000
     47 H           1.6913    5.9145   17.3981 H       1  UNL1        0.0000
     48 C          -0.1653    6.5751    9.1451 C.ar    1  UNL1        0.0000
     49 H          -0.3628    6.3044    8.1173 H       1  UNL1        0.0000
     50 C           4.3827    6.4356    9.5381 C.3     1  UNL1        0.0000
     51 H           4.9171    7.2344    9.0290 H       1  UNL1        0.0000
     52 H           3.4756    6.2028    8.9883 H       1  UNL1        0.0000
     53 H           5.0175    5.5492    9.5171 H       1  UNL1        0.0000
     54 C           0.3757   12.1962   14.0161 C.2     1  UNL1        0.0000
     55 C           3.4459    4.2502   15.3272 C.3     1  UNL1        0.0000
     56 H           2.5981    4.2338   16.0083 H       1  UNL1        0.0000
     57 H           4.3530    4.4567   15.8888 H       1  UNL1        0.0000
     58 H           3.5446    3.2529   14.8979 H       1  UNL1        0.0000
     59 C          -0.4119    5.9083   17.0594 C.ar    1  UNL1        0.0000
     60 H          -0.6344    5.4674   18.0212 H       1  UNL1        0.0000
     61 C          -0.0481   11.6806   12.7895 C.2     1  UNL1        0.0000
     62 C           5.3845    7.1892   15.7974 C.3     1  UNL1        0.0000
     63 H           5.5146    8.0219   15.1057 H       1  UNL1        0.0000
     64 H           5.6588    6.2687   15.2857 H       1  UNL1        0.0000
     65 H           6.0610    7.3212   16.6418 H       1  UNL1        0.0000
     66 C           3.5854    8.4429   17.0047 C.3     1  UNL1        0.0000
     67 H           4.2574    8.5921   17.8498 H       1  UNL1        0.0000
     68 H           2.5655    8.4051   17.3843 H       1  UNL1        0.0000
     69 H           3.6733    9.2958   16.3281 H       1  UNL1        0.0000
     70 H           1.2061    9.3186   15.5444 H       1  UNL1        0.0000
     71 H          -0.3149    9.9465   11.5873 H       1  UNL1        0.0000
     72 H          -0.4841   12.3447   12.0551 H       1  UNL1        0.0000
     73 H           1.1785   11.7204   15.9376 H       1  UNL1        0.0000
     74 H           0.2689   13.2512   14.2242 H       1  UNL1        0.0000
@<TRIPOS>BOND
     1    49    48    1
     2    35    34    1
     3    52    50    1
     4     7     6    1
     5    51    50    1
     6    40    37    1
     7    48    34   ar
     8    48    10   ar
     9    39    37    1
    10    34     4   ar
    11    53    50    1
    12    50     8    1
    13    43    42    1
    14    37     6    1
    15    37    38    1
    16    11    10    1
    17     6    42    1
    18     6     1    1
    19    44    42    1
    20    10    14   ar
    21    42    45    1
    22     4     1    1
    23     4    18   ar
    24     8     1    1
    25     8     9    1
    26     8    22    1
    27    25    22    1
    28    14    18   ar
    29    14    15    1
    30    71    17    1
    31    22    23    1
    32    22    24    1
    33    18    36    1
    34    72    61    1
    35    17    61    2
    36    17    16    1
    37    32    30    1
    38    61    54    1
    39    31    30    1
    40    36    16    1
    41    36     5    1
    42    30    33    1
    43    30    12    1
    44    16    21    1
    45    13    12    1
    46    54    74    1
    47    54    41    2
    48    12     2    1
    49    12    55    1
    50    20    19    1
    51     5    19   ar
    52     5     3   ar
    53    21    41    1
    54    21    70    1
    55     2     3    1
    56     2    26    1
    57    58    55    1
    58    41    73    1
    59    19    28   ar
    60    63    62    1
    61    64    62    1
    62    55    57    1
    63    55    56    1
    64     3    46   ar
    65    62    26    1
    66    62    65    1
    67    28    29    1
    68    28    59   ar
    69    26    27    1
    70    26    66    1
    71    69    66    1
    72    46    59   ar
    73    46    47    1
    74    66    68    1
    75    66    67    1
    76    59    60    1
