@<TRIPOS>MOLECULE
1,2,16,34,73
 78 84 0 0 0
SMALL
GASTEIGER

@<TRIPOS>ATOM
      1 P           5.8172    3.7938   19.8845 P.3     1  UNL1        0.0000
      2 P           4.1004    6.0090   17.9873 P.3     1  UNL1        0.0000
      3 C           6.0456    5.2104   21.0202 C.ar    1  UNL1        0.0000
      4 C           4.3608    1.2167   22.7846 C.ar    1  UNL1        0.0000
      5 H           4.7205    0.6391   23.6244 H       1  UNL1        0.0000
      6 C           2.5568    1.9367   21.3751 C.ar    1  UNL1        0.0000
      7 H           1.5088    1.8928   21.1122 H       1  UNL1        0.0000
      8 C           4.7789    2.7201   20.9636 C.ar    1  UNL1        0.0000
      9 C           6.7283    9.4090   19.6352 C.ar    1  UNL1        0.0000
     10 H           7.3622   10.2163   19.9724 H       1  UNL1        0.0000
     11 C           6.3433    7.5338   18.1986 C.ar    1  UNL1        0.0000
     12 H           6.6691    6.8443   17.4278 H       1  UNL1        0.0000
     13 C           5.2448    6.6528   22.7701 C.ar    1  UNL1        0.0000
     14 H           4.4763    6.9186   23.4819 H       1  UNL1        0.0000
     15 C           2.1178    4.8747   19.5380 C.ar    1  UNL1        0.0000
     16 C           4.0580    1.9386   17.6560 C.3     1  UNL1        0.0000
     17 C           2.2229    2.6024   15.6766 C.2     1  UNL1        0.0000
     18 C           4.1226    1.3319   16.3974 C.2     1  UNL1        0.0000
     19 C           3.4212    2.7151   20.6099 C.ar    1  UNL1        0.0000
     20 C           5.0758    7.3584   18.7514 C.ar    1  UNL1        0.0000
     21 C           5.0577    5.5698   21.9306 C.ar    1  UNL1        0.0000
     22 H           4.1441    4.9940   21.9847 H       1  UNL1        0.0000
     23 C           5.4869    9.2151   20.2155 C.ar    1  UNL1        0.0000
     24 H           5.1562    9.8664   21.0118 H       1  UNL1        0.0000
     25 C           3.0559    6.1435   15.4359 C.ar    1  UNL1        0.0000
     26 H           3.0434    5.0686   15.5505 H       1  UNL1        0.0000
     27 C           0.5385    7.2008   19.6706 C.ar    1  UNL1        0.0000
     28 H          -0.0752    8.0894   19.7136 H       1  UNL1        0.0000
     29 C           3.6106    8.2990   16.3291 C.ar    1  UNL1        0.0000
     30 H           4.0190    8.9172   17.1169 H       1  UNL1        0.0000
     31 C           3.0163    1.1983   22.4510 C.ar    1  UNL1        0.0000
     32 H           2.3262    0.5993   23.0289 H       1  UNL1        0.0000
     33 C           3.5629    6.9152   16.4762 C.ar    1  UNL1        0.0000
     34 C           3.0576    2.9107   17.9493 C.3     1  UNL1        0.0000
     35 C           2.5035    6.0601   18.8888 C.ar    1  UNL1        0.0000
     36 C           4.6602    8.1935   19.7794 C.ar    1  UNL1        0.0000
     37 H           3.6944    8.0469   20.2408 H       1  UNL1        0.0000
     38 C           3.1494    8.8908   15.1656 C.ar    1  UNL1        0.0000
     39 H           3.1923    9.9656   15.0600 H       1  UNL1        0.0000
     40 C           2.6332    8.1149   14.1417 C.ar    1  UNL1        0.0000
     41 H           2.2706    8.5835   13.2382 H       1  UNL1        0.0000
     42 C           7.1621    8.5578   18.6303 C.ar    1  UNL1        0.0000
     43 H           8.1387    8.6964   18.1884 H       1  UNL1        0.0000
     44 C           6.4146    7.3908   22.7058 C.ar    1  UNL1        0.0000
     45 H           6.5659    8.2270   23.3730 H       1  UNL1        0.0000
     46 C           5.2457    1.9727   22.0372 C.ar    1  UNL1        0.0000
     47 H           6.2958    1.9773   22.2927 H       1  UNL1        0.0000
     48 C           7.3877    7.0602   21.7769 C.ar    1  UNL1        0.0000
     49 H           8.2954    7.6431   21.7134 H       1  UNL1        0.0000
     50 C           0.9422    4.9173   20.2896 C.ar    1  UNL1        0.0000
     51 H           0.6219    4.0291   20.8152 H       1  UNL1        0.0000
     52 C           1.7041    7.1975   18.9273 C.ar    1  UNL1        0.0000
     53 H           1.9960    8.0827   18.3785 H       1  UNL1        0.0000
     54 C           2.1540    3.2166   16.9023 C.2     1  UNL1        0.0000
     55 C           8.8617    1.1687   19.2963 C.ar    1  UNL1        0.0000
     56 H           9.0915    0.4226   18.5493 H       1  UNL1        0.0000
     57 C           7.4175    2.9087   20.1332 C.ar    1  UNL1        0.0000
     58 C           9.3985    2.2860   21.3476 C.ar    1  UNL1        0.0000
     59 H          10.0505    2.4179   22.1996 H       1  UNL1        0.0000
     60 C           7.1996    5.9846   20.9306 C.ar    1  UNL1        0.0000
     61 H           7.9565    5.7286   20.2010 H       1  UNL1        0.0000
     62 C           3.2236    1.6631   15.4098 C.2     1  UNL1        0.0000
     63 C           2.5882    6.7368   14.2791 C.ar    1  UNL1        0.0000
     64 H           2.1879    6.1264   13.4823 H       1  UNL1        0.0000
     65 C           8.2593    3.0636   21.2305 C.ar    1  UNL1        0.0000
     66 H           8.0287    3.7938   21.9937 H       1  UNL1        0.0000
     67 C           9.6999    1.3355   20.3867 C.ar    1  UNL1        0.0000
     68 H          10.5865    0.7264   20.4884 H       1  UNL1        0.0000
     69 C           0.1684    6.0599   20.3660 C.ar    1  UNL1        0.0000
     70 H          -0.7367    6.0603   20.9576 H       1  UNL1        0.0000
     71 C           7.7338    1.9570   19.1702 C.ar    1  UNL1        0.0000
     72 H           7.0769    1.8629   18.3127 H       1  UNL1        0.0000
     73 B           2.9646    3.5589   19.3589 B       1  UNL1        0.0000
     74 H           1.3570    3.9224   17.1024 H       1  UNL1        0.0000
     75 H           4.8688    0.5697   16.2133 H       1  UNL1        0.0000
     76 H           4.6086    1.4815   18.4754 H       1  UNL1        0.0000
     77 H           1.4939    2.8348   14.9116 H       1  UNL1        0.0000
     78 H           3.2664    1.1807   14.4436 H       1  UNL1        0.0000
@<TRIPOS>BOND
     1    41    40    1
     2    64    63    1
     3    40    63   ar
     4    40    38   ar
     5    63    25   ar
     6    78    62    1
     7    77    17    1
     8    39    38    1
     9    38    29   ar
    10    62    17    1
    11    62    18    2
    12    25    26    1
    13    25    33   ar
    14    17    54    2
    15    75    18    1
    16    29    33   ar
    17    29    30    1
    18    18    16    1
    19    33     2    1
    20    54    74    1
    21    54    34    1
    22    12    11    1
    23    16    34    1
    24    16    76    1
    25    34    73    1
    26     2    20    1
    27     2    35    1
    28    43    42    1
    29    11    42   ar
    30    11    20   ar
    31    72    71    1
    32    53    52    1
    33    56    55    1
    34    42     9   ar
    35    20    36   ar
    36    35    52   ar
    37    35    15   ar
    38    52    27   ar
    39    71    55   ar
    40    71    57   ar
    41    55    67   ar
    42    73    15    1
    43    73    19    1
    44    15    50   ar
    45     9    10    1
    46     9    23   ar
    47    27    28    1
    48    27    69   ar
    49    36    23   ar
    50    36    37    1
    51     1    57    1
    52     1     8    1
    53     1     3    1
    54    57    65   ar
    55    61    60    1
    56    23    24    1
    57    50    69   ar
    58    50    51    1
    59    69    70    1
    60    67    68    1
    61    67    58   ar
    62    19     8   ar
    63    19     6   ar
    64    60     3   ar
    65    60    48   ar
    66     8    46   ar
    67     3    21   ar
    68     7     6    1
    69    65    58   ar
    70    65    66    1
    71    58    59    1
    72     6    31   ar
    73    49    48    1
    74    48    44   ar
    75    21    22    1
    76    21    13   ar
    77    46    47    1
    78    46     4   ar
    79    31     4   ar
    80    31    32    1
    81    44    13   ar
    82    44    45    1
    83    13    14    1
    84     4     5    1
