@<TRIPOS>MOLECULE
1,5
 43 42 0 0 0
SMALL
GASTEIGER

@<TRIPOS>ATOM
      1 P           9.1931   -0.7271   15.6739 P.3     1  UNL1        0.0000
      2 P           9.4811    2.5132   21.2335 P.3     1  UNL1        0.0000
      3 SI          6.5413    0.2623   16.8096 Si      1  UNL1        0.0000
      4 SI          7.8829    2.4027   18.5543 Si      1  UNL1        0.0000
      5 N           7.6232    1.5690   17.0675 N.3     1  UNL1        0.0000
      6 C           7.4087   -1.1119   15.7742 C.3     1  UNL1        0.0000
      7 C           8.9367    1.4264   19.8275 C.3     1  UNL1        0.0000
      8 C           9.7232   -2.0620   14.5024 C.3     1  UNL1        0.0000
      9 C           9.7603   -1.4770   17.2609 C.3     1  UNL1        0.0000
     10 C          10.6871    1.3242   21.9987 C.3     1  UNL1        0.0000
     11 C           8.0825    2.2015   22.4125 C.3     1  UNL1        0.0000
     12 C           5.9715   -0.6039   18.4191 C.3     1  UNL1        0.0000
     13 C           4.9535    0.7173   15.8384 C.3     1  UNL1        0.0000
     14 C           8.8650    3.9881   18.0984 C.3     1  UNL1        0.0000
     15 C           6.2284    2.9008   19.3873 C.3     1  UNL1        0.0000
     16 H           7.0160   -1.1082   14.7579 H       1  UNL1        0.0000
     17 H           7.2688   -2.1102   16.1922 H       1  UNL1        0.0000
     18 H           9.8529    1.0940   19.3371 H       1  UNL1        0.0000
     19 H           8.4177    0.5502   20.2183 H       1  UNL1        0.0000
     20 H           9.2462   -3.0049   14.7671 H       1  UNL1        0.0000
     21 H           9.4243   -1.7762   13.4946 H       1  UNL1        0.0000
     22 H          10.8041   -2.1812   14.5367 H       1  UNL1        0.0000
     23 H           9.4701   -2.5255   17.3269 H       1  UNL1        0.0000
     24 H          10.8434   -1.3889   17.3354 H       1  UNL1        0.0000
     25 H           9.3137   -0.9168   18.0805 H       1  UNL1        0.0000
     26 H          11.0098    1.7053   22.9660 H       1  UNL1        0.0000
     27 H          10.2436    0.3376   22.1292 H       1  UNL1        0.0000
     28 H          11.5583    1.2444   21.3517 H       1  UNL1        0.0000
     29 H           8.3633    2.5827   23.3929 H       1  UNL1        0.0000
     30 H           7.1974    2.7353   22.0791 H       1  UNL1        0.0000
     31 H           7.8564    1.1390   22.4919 H       1  UNL1        0.0000
     32 H           5.4006    0.0795   19.0343 H       1  UNL1        0.0000
     33 H           5.3343   -1.4529   18.1974 H       1  UNL1        0.0000
     34 H           6.8060   -0.9628   19.0110 H       1  UNL1        0.0000
     35 H           4.2933    1.3441   16.4264 H       1  UNL1        0.0000
     36 H           5.1790    1.2336   14.9104 H       1  UNL1        0.0000
     37 H           4.4014   -0.1823   15.5845 H       1  UNL1        0.0000
     38 H           9.1245    4.0049   17.0329 H       1  UNL1        0.0000
     39 H           8.3141    4.8965   18.3283 H       1  UNL1        0.0000
     40 H           9.7880    4.0216   18.6722 H       1  UNL1        0.0000
     41 H           6.3373    3.8073   19.9731 H       1  UNL1        0.0000
     42 H           5.4451    3.0622   18.6543 H       1  UNL1        0.0000
     43 H           5.8841    2.1188   20.0533 H       1  UNL1        0.0000
@<TRIPOS>BOND
     1    21     8    1
     2     8    22    1
     3     8    20    1
     4     8     1    1
     5    16     6    1
     6    36    13    1
     7    37    13    1
     8     1     6    1
     9     1     9    1
    10     6    17    1
    11     6     3    1
    12    13    35    1
    13    13     3    1
    14     3     5    1
    15     3    12    1
    16    38    14    1
    17     5     4    1
    18     9    23    1
    19     9    24    1
    20     9    25    1
    21    14    39    1
    22    14     4    1
    23    14    40    1
    24    33    12    1
    25    12    34    1
    26    12    32    1
    27     4    15    1
    28     4     7    1
    29    42    15    1
    30    18     7    1
    31    15    41    1
    32    15    43    1
    33     7    19    1
    34     7     2    1
    35     2    10    1
    36     2    11    1
    37    28    10    1
    38    10    27    1
    39    10    26    1
    40    30    11    1
    41    11    31    1
    42    11    29    1
