@<TRIPOS>MOLECULE
1,43
 51 51 0 0 0
SMALL
GASTEIGER

@<TRIPOS>ATOM
      1 P           1.2332    4.5770    8.0126 P.3     1  UNL1        0.0000
      2 C           1.2031    2.7107    7.7936 C.3     1  UNL1        0.0000
      3 H           2.1964    2.3007    7.9868 H       1  UNL1        0.0000
      4 SI         -0.0431    2.0824    9.1178 Si      1  UNL1        0.0000
      5 C          -1.8173    2.3575    8.4706 C.3     1  UNL1        0.0000
      6 H          -1.9536    3.3800    8.1347 H       1  UNL1        0.0000
      7 H          -2.5422    2.1688    9.2557 H       1  UNL1        0.0000
      8 H          -2.0546    1.7003    7.6417 H       1  UNL1        0.0000
      9 C           0.2559    0.2211    9.4451 C.3     1  UNL1        0.0000
     10 H          -0.4465   -0.1500   10.1842 H       1  UNL1        0.0000
     11 H           1.2553    0.0418    9.8297 H       1  UNL1        0.0000
     12 H           0.1359   -0.3780    8.5502 H       1  UNL1        0.0000
     13 C           0.0172    2.9358   10.8236 C.3     1  UNL1        0.0000
     14 H          -0.1031    4.0107   10.7381 H       1  UNL1        0.0000
     15 H           0.9511    2.7546   11.3438 H       1  UNL1        0.0000
     16 H          -0.7873    2.5609   11.4500 H       1  UNL1        0.0000
     17 SI          0.7772    2.2473    5.9884 Si      1  UNL1        0.0000
     18 C          -0.6163    3.3430    5.2736 C.3     1  UNL1        0.0000
     19 H          -0.5261    3.4737    4.1990 H       1  UNL1        0.0000
     20 H          -0.6092    4.3243    5.7383 H       1  UNL1        0.0000
     21 H          -1.5894    2.9040    5.4644 H       1  UNL1        0.0000
     22 C           2.3648    2.4273    4.9318 C.3     1  UNL1        0.0000
     23 H           2.8930    3.3537    5.1535 H       1  UNL1        0.0000
     24 H           2.1465    2.4088    3.8681 H       1  UNL1        0.0000
     25 H           3.0444    1.6041    5.1332 H       1  UNL1        0.0000
     26 C           0.2541    0.4243    5.7789 C.3     1  UNL1        0.0000
     27 H           0.1213    0.1893    4.7275 H       1  UNL1        0.0000
     28 H          -0.6818    0.2113    6.2821 H       1  UNL1        0.0000
     29 H           1.0033   -0.2549    6.1718 H       1  UNL1        0.0000
     30 C           2.2183    4.7728    9.5345 C.ar    1  UNL1        0.0000
     31 C           3.0552    3.7845   10.0711 C.ar    1  UNL1        0.0000
     32 H           3.1649    2.8352    9.5675 H       1  UNL1        0.0000
     33 C           3.7559    3.9833   11.2421 C.ar    1  UNL1        0.0000
     34 H           4.3969    3.1990   11.6213 H       1  UNL1        0.0000
     35 C           3.6366    5.1748   11.9387 C.ar    1  UNL1        0.0000
     36 H           4.1737    5.3296   12.8624 H       1  UNL1        0.0000
     37 C           2.8136    6.1663   11.4312 C.ar    1  UNL1        0.0000
     38 H           2.7019    7.0953   11.9756 H       1  UNL1        0.0000
     39 C           2.1190    5.9902   10.2466 C.ar    1  UNL1        0.0000
     40 C           1.2405    7.0891    9.7252 C.3     1  UNL1        0.0000
     41 H           0.3453    6.6337    9.2839 H       1  UNL1        0.0000
     42 H           0.9263    7.7496   10.5511 H       1  UNL1        0.0000
     43 N           1.8965    7.8820    8.6701 N.3     1  UNL1        0.0000
     44 C           2.9310    8.7280    9.2586 C.3     1  UNL1        0.0000
     45 H           2.5060    9.4296    9.9930 H       1  UNL1        0.0000
     46 H           3.4145    9.3043    8.4707 H       1  UNL1        0.0000
     47 H           3.6766    8.1107    9.7565 H       1  UNL1        0.0000
     48 C           0.9013    8.7358    8.0333 C.3     1  UNL1        0.0000
     49 H           0.4360    9.4250    8.7541 H       1  UNL1        0.0000
     50 H           0.1192    8.1176    7.5947 H       1  UNL1        0.0000
     51 H           1.3746    9.3286    7.2515 H       1  UNL1        0.0000
@<TRIPOS>BOND
     1    24    22    1
     2    19    18    1
     3    27    26    1
     4    22    25    1
     5    22    23    1
     6    22    17    1
     7    18    21    1
     8    18    20    1
     9    18    17    1
    10    26    17    1
    11    26    29    1
    12    26    28    1
    13    17     2    1
    14    51    48    1
    15    50    48    1
    16     8     5    1
    17     2     3    1
    18     2     1    1
    19     2     4    1
    20     1    30    1
    21    48    43    1
    22    48    49    1
    23     6     5    1
    24     5     4    1
    25     5     7    1
    26    46    44    1
    27    12     9    1
    28    43    44    1
    29    43    40    1
    30     4     9    1
    31     4    13    1
    32    44    47    1
    33    44    45    1
    34    41    40    1
    35     9    11    1
    36     9    10    1
    37    30    31   ar
    38    30    39   ar
    39    32    31    1
    40    40    39    1
    41    40    42    1
    42    31    33   ar
    43    39    37   ar
    44    14    13    1
    45    13    15    1
    46    13    16    1
    47    33    34    1
    48    33    35   ar
    49    37    35   ar
    50    37    38    1
    51    35    36    1
