@<TRIPOS>MOLECULE
1,3
 70 71 0 0 0
SMALL
GASTEIGER

@<TRIPOS>ATOM
      1 P          -3.3069   16.8037   20.7619 P.3     1  UNL1       -0.0032
      2 N          -2.7583   17.2905   19.2808 N.3     1  UNL1       -0.1794
      3 N          -3.5573   15.2370   18.6224 N.pl3   1  UNL1       -0.2177
      4 C          -1.7203   16.6213   21.7942 C.3     1  UNL1       -0.0024
      5 C          -0.9071   17.8921   22.0028 C.3     1  UNL1       -0.0549
      6 H           0.0884   17.6375   22.3681 H       1  UNL1        0.0239
      7 H          -1.3720   18.5464   22.7354 H       1  UNL1        0.0239
      8 H          -0.8020   18.4257   21.0614 H       1  UNL1        0.0239
      9 C          -2.1004   15.9701   23.1218 C.3     1  UNL1       -0.0549
     10 H          -1.2068   15.6448   23.6545 H       1  UNL1        0.0239
     11 H          -2.7345   15.1013   22.9347 H       1  UNL1        0.0239
     12 H          -2.6391   16.6604   23.7646 H       1  UNL1        0.0239
     13 C          -0.8949   15.6274   20.9738 C.3     1  UNL1       -0.0549
     14 H          -0.6074   16.0748   20.0244 H       1  UNL1        0.0239
     15 H          -1.4891   14.7300   20.7734 H       1  UNL1        0.0239
     16 H           0.0089   15.3380   21.5085 H       1  UNL1        0.0239
     17 C          -4.2637   18.3665   21.2862 C.3     1  UNL1       -0.0024
     18 C          -4.6956   18.2894   22.7463 C.3     1  UNL1       -0.0549
     19 H          -5.4404   19.0572   22.9570 H       1  UNL1        0.0239
     20 H          -3.8534   18.4518   23.4146 H       1  UNL1        0.0239
     21 H          -5.1333   17.3167   22.9670 H       1  UNL1        0.0239
     22 C          -3.4833   19.6464   20.9995 C.3     1  UNL1       -0.0549
     23 H          -4.1697   20.4894   20.9209 H       1  UNL1        0.0239
     24 H          -2.9505   19.5434   20.0576 H       1  UNL1        0.0239
     25 H          -2.7688   19.8708   21.7843 H       1  UNL1        0.0239
     26 C          -5.5035   18.3481   20.3874 C.3     1  UNL1       -0.0549
     27 H          -6.0870   17.4440   20.5429 H       1  UNL1        0.0239
     28 H          -5.2027   18.3945   19.3420 H       1  UNL1        0.0239
     29 H          -6.1400   19.2077   20.5973 H       1  UNL1        0.0239
     30 C          -3.0069   16.4098   18.3273 C.3     1  UNL1        0.1897
     31 C          -2.6263   16.8371   16.9625 C.ar    1  UNL1       -0.0026
     32 C          -2.2457   15.9562   15.9538 C.ar    1  UNL1       -0.0550
     33 H          -2.2222   14.8948   16.1335 H       1  UNL1        0.0621
     34 C          -1.8889   16.4340   14.7053 C.ar    1  UNL1       -0.0614
     35 H          -1.5981   15.7362   13.9334 H       1  UNL1        0.0618
     36 C          -1.9032   17.7925   14.4407 C.ar    1  UNL1       -0.0617
     37 H          -1.6282   18.1587   13.4623 H       1  UNL1        0.0618
     38 C          -2.2699   18.6785   15.4408 C.ar    1  UNL1       -0.0614
     39 H          -2.2811   19.7410   15.2453 H       1  UNL1        0.0618
     40 C          -2.6248   18.2053   16.6886 C.ar    1  UNL1       -0.0550
     41 H          -2.9127   18.8880   17.4723 H       1  UNL1        0.0621
     42 C          -4.0545   14.3616   17.6504 C.ar    1  UNL1        0.0573
     43 C          -3.4830   13.0775   17.5266 C.ar    1  UNL1       -0.0219
     44 C          -3.9222   12.2385   16.5167 C.ar    1  UNL1       -0.0565
     45 H          -3.4717   11.2677   16.3870 H       1  UNL1        0.0621
     46 C          -4.9374   12.6250   15.6591 C.ar    1  UNL1       -0.0611
     47 H          -5.2626   11.9610   14.8720 H       1  UNL1        0.0618
     48 C          -5.5461   13.8511   15.8308 C.ar    1  UNL1       -0.0565
     49 H          -6.3617   14.1311   15.1816 H       1  UNL1        0.0621
     50 C          -5.1274   14.7311   16.8183 C.ar    1  UNL1       -0.0219
     51 C          -2.3933   12.6498   18.4855 C.3     1  UNL1       -0.0197
     52 H          -2.6493   13.0772   19.4710 H       1  UNL1        0.0344
     53 C          -1.0338   13.2097   18.0562 C.3     1  UNL1       -0.0586
     54 H          -0.2556   12.8730   18.7382 H       1  UNL1        0.0235
     55 H          -1.0456   14.2961   18.0629 H       1  UNL1        0.0235
     56 H          -0.7820   12.8667   17.0538 H       1  UNL1        0.0235
     57 C          -2.3045   11.1341   18.6484 C.3     1  UNL1       -0.0586
     58 H          -1.8757   10.6675   17.7638 H       1  UNL1        0.0235
     59 H          -3.2902   10.7130   18.8287 H       1  UNL1        0.0235
     60 H          -1.6658   10.8916   19.4943 H       1  UNL1        0.0235
     61 C          -5.8718   16.0322   17.0046 C.3     1  UNL1       -0.0197
     62 H          -5.4047   16.5851   17.8243 H       1  UNL1        0.0344
     63 C          -7.3279   15.7486   17.3899 C.3     1  UNL1       -0.0586
     64 H          -7.8686   15.3108   16.5542 H       1  UNL1        0.0235
     65 H          -7.8261   16.6738   17.6722 H       1  UNL1        0.0235
     66 H          -7.3758   15.0562   18.2259 H       1  UNL1        0.0235
     67 C          -5.8282   16.9040   15.7478 C.3     1  UNL1       -0.0586
     68 H          -4.8038   17.0816   15.4332 H       1  UNL1        0.0235
     69 H          -6.3001   17.8642   15.9459 H       1  UNL1        0.0235
     70 H          -6.3596   16.4264   14.9280 H       1  UNL1        0.0235
@<TRIPOS>BOND
     1    37    36    1
     2    35    34    1
     3    36    34   ar
     4    36    38   ar
     5    34    32   ar
     6    47    46    1
     7    70    67    1
     8    49    48    1
     9    39    38    1
    10    68    67    1
    11    38    40   ar
    12    46    48   ar
    13    46    44   ar
    14    67    69    1
    15    67    61    1
    16    48    50   ar
    17    32    33    1
    18    32    31   ar
    19    45    44    1
    20    44    43   ar
    21    64    63    1
    22    40    31   ar
    23    40    41    1
    24    50    61    1
    25    50    42   ar
    26    31    30    1
    27    61    63    1
    28    61    62    1
    29    56    53    1
    30    63    65    1
    31    63    66    1
    32    43    42   ar
    33    43    51    1
    34    42     3    1
    35    58    57    1
    36    53    55    1
    37    53    51    1
    38    53    54    1
    39    30     3    1
    40    30     2    1
    41    51    57    1
    42    51    52    1
    43    57    59    1
    44    57    60    1
    45     2     1    1
    46    28    26    1
    47    14    13    1
    48    24    22    1
    49    26    27    1
    50    26    29    1
    51    26    17    1
    52     1    17    1
    53     1     4    1
    54    15    13    1
    55    23    22    1
    56    13    16    1
    57    13     4    1
    58    22    17    1
    59    22    25    1
    60     8     5    1
    61    17    18    1
    62     4     5    1
    63     4     9    1
    64     5     6    1
    65     5     7    1
    66    18    19    1
    67    18    21    1
    68    18    20    1
    69    11     9    1
    70     9    10    1
    71     9    12    1
