@<TRIPOS>MOLECULE
1,4
 58 59 0 0 0
SMALL
GASTEIGER

@<TRIPOS>ATOM
      1 P          16.0920    8.9607    4.6281 P.3     1  UNL1       -0.0032
      2 N          16.2438   10.0039    3.3478 N.3     1  UNL1       -0.1794
      3 C          16.9173    7.3592    4.0429 C.3     1  UNL1       -0.0024
      4 N          13.9643   10.0940    3.5936 N.pl3   1  UNL1       -0.2177
      5 C          16.6610    6.2912    5.1048 C.3     1  UNL1       -0.0549
      6 H          16.8953    5.3023    4.7111 H       1  UNL1        0.0239
      7 H          15.6094    6.3118    5.4011 H       1  UNL1        0.0239
      8 H          17.2709    6.4527    5.9888 H       1  UNL1        0.0239
      9 C          16.1258    6.9966    2.7857 C.3     1  UNL1       -0.0549
     10 H          16.2539    7.7659    2.0263 H       1  UNL1        0.0239
     11 H          15.0654    6.9145    3.0305 H       1  UNL1        0.0239
     12 H          16.4634    6.0456    2.3748 H       1  UNL1        0.0239
     13 C          18.3949    7.4842    3.6972 C.3     1  UNL1       -0.0549
     14 H          19.0065    7.5612    4.5924 H       1  UNL1        0.0239
     15 H          18.5556    8.3646    3.0795 H       1  UNL1        0.0239
     16 H          18.7240    6.6052    3.1420 H       1  UNL1        0.0239
     17 C          17.1951    9.8657    5.8927 C.3     1  UNL1       -0.0024
     18 C          18.4577   10.4361    5.2525 C.3     1  UNL1       -0.0549
     19 H          18.8682   11.2236    5.8843 H       1  UNL1        0.0239
     20 H          18.2149   10.8601    4.2811 H       1  UNL1        0.0239
     21 H          19.2227    9.6775    5.1227 H       1  UNL1        0.0239
     22 C          17.5371    8.9979    7.0984 C.3     1  UNL1       -0.0549
     23 H          18.2777    8.2446    6.8409 H       1  UNL1        0.0239
     24 H          16.6510    8.4997    7.4856 H       1  UNL1        0.0239
     25 H          17.9562    9.6171    7.8920 H       1  UNL1        0.0239
     26 C          16.3049   11.0329    6.3326 C.3     1  UNL1       -0.0549
     27 H          16.8153   11.6485    7.0729 H       1  UNL1        0.0239
     28 H          15.3737   10.6712    6.7662 H       1  UNL1        0.0239
     29 H          16.0663   11.6579    5.4730 H       1  UNL1        0.0239
     30 C          15.0749   10.5126    3.0008 C.3     1  UNL1        0.1897
     31 C          15.1005   11.6136    2.0175 C.ar    1  UNL1       -0.0026
     32 C          14.2587   12.7149    2.1388 C.ar    1  UNL1       -0.0550
     33 H          13.5605   12.7736    2.9600 H       1  UNL1        0.0621
     34 C          14.3204   13.7421    1.2149 C.ar    1  UNL1       -0.0614
     35 H          13.6608   14.5918    1.3156 H       1  UNL1        0.0618
     36 C          15.2223   13.6853    0.1657 C.ar    1  UNL1       -0.0617
     37 H          15.2627   14.4866   -0.5577 H       1  UNL1        0.0618
     38 C          16.0791   12.6021    0.0526 C.ar    1  UNL1       -0.0614
     39 H          16.7921   12.5598   -0.7581 H       1  UNL1        0.0618
     40 C          16.0235   11.5756    0.9754 C.ar    1  UNL1       -0.0550
     41 H          16.6882   10.7287    0.9012 H       1  UNL1        0.0621
     42 C          12.6679   10.4280    3.2126 C.ar    1  UNL1        0.0563
     43 C          12.1846   10.2723    1.9024 C.ar    1  UNL1       -0.0276
     44 C          10.8554   10.5759    1.6400 C.ar    1  UNL1       -0.0570
     45 H          10.4859   10.4571    0.6311 H       1  UNL1        0.0621
     46 C          10.0025   11.0120    2.6348 C.ar    1  UNL1       -0.0611
     47 H           8.9721   11.2400    2.4063 H       1  UNL1        0.0618
     48 C          10.4771   11.1504    3.9291 C.ar    1  UNL1       -0.0570
     49 H           9.8145   11.4918    4.7120 H       1  UNL1        0.0621
     50 C          11.7950   10.8648    4.2290 C.ar    1  UNL1       -0.0276
     51 C          13.0434    9.7709    0.7791 C.3     1  UNL1       -0.0379
     52 H          13.3692   10.5990    0.1486 H       1  UNL1        0.0278
     53 H          12.4752    9.0791    0.1595 H       1  UNL1        0.0278
     54 H          13.9289    9.2610    1.1499 H       1  UNL1        0.0278
     55 C          12.3325   11.0320    5.6197 C.3     1  UNL1       -0.0379
     56 H          11.5699   11.4284    6.2847 H       1  UNL1        0.0278
     57 H          13.1844   11.7116    5.6151 H       1  UNL1        0.0278
     58 H          12.6733   10.0665    6.0075 H       1  UNL1        0.0278
@<TRIPOS>BOND
     1    39    38    1
     2    37    36    1
     3    38    36   ar
     4    38    40   ar
     5    52    51    1
     6    53    51    1
     7    36    34   ar
     8    45    44    1
     9    51    54    1
    10    51    43    1
    11    41    40    1
    12    40    31   ar
    13    34    35    1
    14    34    32   ar
    15    44    43   ar
    16    44    46   ar
    17    43    42   ar
    18    31    32   ar
    19    31    30    1
    20    10     9    1
    21    32    33    1
    22    12     9    1
    23    47    46    1
    24    46    48   ar
    25     9    11    1
    26     9     3    1
    27    30     2    1
    28    30     4    1
    29    15    13    1
    30    16    13    1
    31    42     4    1
    32    42    50   ar
    33     2     1    1
    34    13     3    1
    35    13    14    1
    36    48    50   ar
    37    48    49    1
    38     3     1    1
    39     3     5    1
    40    50    55    1
    41    20    18    1
    42     1    17    1
    43     6     5    1
    44     5     7    1
    45     5     8    1
    46    21    18    1
    47    18    19    1
    48    18    17    1
    49    29    26    1
    50    57    55    1
    51    55    58    1
    52    55    56    1
    53    17    26    1
    54    17    22    1
    55    26    28    1
    56    26    27    1
    57    23    22    1
    58    22    24    1
    59    22    25    1
