@<TRIPOS>MOLECULE
1,4
 41 41 0 0 0
SMALL
GASTEIGER

@<TRIPOS>ATOM
      1 P           5.6661   -7.1300   -5.1075 P.3     1  UNL1        0.0000
      2 SI          6.0853   -7.4389   -2.1724 Si      1  UNL1        0.0000
      3 SI          4.5308   -9.7045   -4.1036 Si      1  UNL1        0.0000
      4 N           5.9330   -5.3554   -7.3291 N.pl3   1  UNL1        0.0000
      5 C           7.0047   -7.1322   -6.1381 C.2     1  UNL1        0.0000
      6 H           7.8484   -7.7989   -6.0279 H       1  UNL1        0.0000
      7 C           6.9967   -6.1867   -7.2062 C.3     1  UNL1        0.0000
      8 C           8.0736   -6.1195   -8.1089 C.2     1  UNL1        0.0000
      9 H           8.9031   -6.7984   -7.9807 H       1  UNL1        0.0000
     10 C           8.0603   -5.2025   -9.1320 C.2     1  UNL1        0.0000
     11 H           8.8807   -5.1414   -9.8314 H       1  UNL1        0.0000
     12 C           6.9628   -4.3540   -9.2445 C.2     1  UNL1        0.0000
     13 H           6.9037   -3.6168  -10.0283 H       1  UNL1        0.0000
     14 C           5.9385   -4.4735   -8.3254 C.2     1  UNL1        0.0000
     15 H           5.0759   -3.8230   -8.3960 H       1  UNL1        0.0000
     16 C           5.9180   -8.3896   -3.8422 C.3     1  UNL1        0.0000
     17 H           6.8780   -8.8656   -4.0578 H       1  UNL1        0.0000
     18 C           7.4357   -6.1229   -2.4707 C.3     1  UNL1        0.0000
     19 H           7.6228   -5.5245   -1.5845 H       1  UNL1        0.0000
     20 H           7.1324   -5.4447   -3.2662 H       1  UNL1        0.0000
     21 H           8.3797   -6.5719   -2.7674 H       1  UNL1        0.0000
     22 C           6.6631   -8.6496   -0.8200 C.3     1  UNL1        0.0000
     23 H           5.8922   -9.3686   -0.5687 H       1  UNL1        0.0000
     24 H           6.9120   -8.1072    0.0855 H       1  UNL1        0.0000
     25 H           7.5455   -9.2042   -1.1219 H       1  UNL1        0.0000
     26 C           4.4501   -6.5878   -1.7167 C.3     1  UNL1        0.0000
     27 H           4.0232   -6.0869   -2.5829 H       1  UNL1        0.0000
     28 H           4.6057   -5.8384   -0.9467 H       1  UNL1        0.0000
     29 H           3.7145   -7.2909   -1.3400 H       1  UNL1        0.0000
     30 C           2.7999   -8.9329   -3.9897 C.3     1  UNL1        0.0000
     31 H           2.5576   -8.6065   -2.9843 H       1  UNL1        0.0000
     32 H           2.0393   -9.6464   -4.2923 H       1  UNL1        0.0000
     33 H           2.7201   -8.0675   -4.6449 H       1  UNL1        0.0000
     34 C           4.7448  -11.1113   -2.8374 C.3     1  UNL1        0.0000
     35 H           4.1661  -11.9773   -3.1394 H       1  UNL1        0.0000
     36 H           4.3964  -10.8152   -1.8543 H       1  UNL1        0.0000
     37 H           5.7791  -11.4237   -2.7426 H       1  UNL1        0.0000
     38 C           4.8147  -10.3560   -5.8761 C.3     1  UNL1        0.0000
     39 H           4.7743   -9.5340   -6.5886 H       1  UNL1        0.0000
     40 H           4.0590  -11.0787   -6.1674 H       1  UNL1        0.0000
     41 H           5.7837  -10.8355   -5.9839 H       1  UNL1        0.0000
@<TRIPOS>BOND
     1    13    12    1
     2    11    10    1
     3    12    10    1
     4    12    14    2
     5    10     8    2
     6    15    14    1
     7    14     4    1
     8     8     9    1
     9     8     7    1
    10     4     7    1
    11     7     5    1
    12    39    38    1
    13    40    38    1
    14     5     6    1
    15     5     1    2
    16    41    38    1
    17    38     3    1
    18     1    16    1
    19    33    30    1
    20    32    30    1
    21     3    30    1
    22     3    16    1
    23     3    34    1
    24    17    16    1
    25    30    31    1
    26    16     2    1
    27    20    18    1
    28    35    34    1
    29    34    37    1
    30    34    36    1
    31    21    18    1
    32    27    26    1
    33    18     2    1
    34    18    19    1
    35     2    26    1
    36     2    22    1
    37    26    29    1
    38    26    28    1
    39    25    22    1
    40    22    23    1
    41    22    24    1
