@<TRIPOS>MOLECULE
1,4
 44 44 0 0 0
SMALL
GASTEIGER

@<TRIPOS>ATOM
      1 P           7.0767   -6.9418   -5.2331 P.3     1  UNL1        0.0000
      2 SI          6.7949   -7.2821   -2.2762 Si      1  UNL1        0.0000
      3 SI          8.1623   -9.5830   -4.3204 Si      1  UNL1        0.0000
      4 N           6.9786   -5.0507   -7.3166 N.pl3   1  UNL1        0.0000
      5 C           5.7188   -6.8107   -6.2524 C.2     1  UNL1        0.0000
      6 C           5.8412   -5.7889   -7.2618 C.3     1  UNL1        0.0000
      7 C           4.7988   -5.5488   -8.1776 C.2     1  UNL1        0.0000
      8 H           3.8991   -6.1391   -8.1296 H       1  UNL1        0.0000
      9 C           4.9196   -4.5666   -9.1318 C.2     1  UNL1        0.0000
     10 H           4.1209   -4.3820   -9.8347 H       1  UNL1        0.0000
     11 C           6.0903   -3.8184   -9.1696 C.2     1  UNL1        0.0000
     12 H           6.2356   -3.0357   -9.8958 H       1  UNL1        0.0000
     13 C           7.0764   -4.1032   -8.2456 C.2     1  UNL1        0.0000
     14 H           7.9971   -3.5340   -8.2556 H       1  UNL1        0.0000
     15 C           4.4643   -7.6329   -6.1857 C.3     1  UNL1        0.0000
     16 H           4.3010   -8.1680   -7.1224 H       1  UNL1        0.0000
     17 H           3.5942   -7.0024   -5.9962 H       1  UNL1        0.0000
     18 H           4.5200   -8.3703   -5.3896 H       1  UNL1        0.0000
     19 C           6.8537   -8.2096   -3.9672 C.3     1  UNL1        0.0000
     20 H           5.8741   -8.6701   -4.1050 H       1  UNL1        0.0000
     21 C           9.9457   -8.9423   -4.2359 C.3     1  UNL1        0.0000
     22 H          10.0928   -8.1202   -4.9328 H       1  UNL1        0.0000
     23 H          10.6478   -9.7280   -4.4981 H       1  UNL1        0.0000
     24 H          10.2107   -8.5845   -3.2471 H       1  UNL1        0.0000
     25 C           7.8947  -11.0180   -3.0954 C.3     1  UNL1        0.0000
     26 H           8.2879  -10.7779   -2.1139 H       1  UNL1        0.0000
     27 H           8.4101  -11.9068   -3.4423 H       1  UNL1        0.0000
     28 H           6.8461  -11.2705   -2.9795 H       1  UNL1        0.0000
     29 C           7.7768  -10.1568   -6.1012 C.3     1  UNL1        0.0000
     30 H           6.7829  -10.5876   -6.1858 H       1  UNL1        0.0000
     31 H           8.4860  -10.9013   -6.4489 H       1  UNL1        0.0000
     32 H           7.8274   -9.3114   -6.7854 H       1  UNL1        0.0000
     33 C           6.1944   -8.4970   -0.9363 C.3     1  UNL1        0.0000
     34 H           5.2628   -8.9801   -1.2124 H       1  UNL1        0.0000
     35 H           6.0249   -7.9705   -0.0035 H       1  UNL1        0.0000
     36 H           6.9242   -9.2748   -0.7440 H       1  UNL1        0.0000
     37 C           8.4766   -6.5244   -1.8314 C.3     1  UNL1        0.0000
     38 H           9.1923   -7.2759   -1.5146 H       1  UNL1        0.0000
     39 H           8.3747   -5.8109   -1.0195 H       1  UNL1        0.0000
     40 H           8.8981   -5.9970   -2.6842 H       1  UNL1        0.0000
     41 C           5.4950   -5.9023   -2.5058 C.3     1  UNL1        0.0000
     42 H           5.8051   -5.2192   -3.2944 H       1  UNL1        0.0000
     43 H           5.3594   -5.3172   -1.6015 H       1  UNL1        0.0000
     44 H           4.5243   -6.3037   -2.7846 H       1  UNL1        0.0000
@<TRIPOS>BOND
     1    12    11    1
     2    10     9    1
     3    11     9    1
     4    11    13    2
     5     9     7    2
     6    14    13    1
     7    13     4    1
     8     7     8    1
     9     7     6    1
    10     4     6    1
    11     6     5    1
    12    16    15    1
    13    32    29    1
    14    31    29    1
    15     5    15    1
    16     5     1    2
    17    30    29    1
    18    15    17    1
    19    15    18    1
    20    29     3    1
    21     1    19    1
    22    22    21    1
    23    23    21    1
    24     3    21    1
    25     3    19    1
    26     3    25    1
    27    21    24    1
    28    20    19    1
    29    19     2    1
    30    27    25    1
    31    42    41    1
    32    25    28    1
    33    25    26    1
    34    44    41    1
    35    40    37    1
    36    41     2    1
    37    41    43    1
    38     2    37    1
    39     2    33    1
    40    37    38    1
    41    37    39    1
    42    34    33    1
    43    33    36    1
    44    33    35    1
