@<TRIPOS>MOLECULE
3,4
 95 98 0 0 0
SMALL
GASTEIGER

@<TRIPOS>ATOM
      1 P           1.1132   -0.2194   11.2073 P.3     1  UNL1        0.0000
      2 P           5.2011   -1.2564    7.1777 P.3     1  UNL1        0.0000
      3 P           1.8023    2.2702    7.8682 P.3     1  UNL1        0.0000
      4 N           1.3433    0.2393    9.7087 N.3     1  UNL1        0.0000
      5 C           3.7866    0.7658    9.0823 C.ar    1  UNL1        0.0000
      6 C           3.0960   -1.5407   10.1914 C.ar    1  UNL1        0.0000
      7 C           3.4154   -1.4193    6.7204 C.ar    1  UNL1        0.0000
      8 C           5.0380    0.6213    9.6822 C.ar    1  UNL1        0.0000
      9 H           5.2788   -0.3138   10.1652 H       1  UNL1        0.0000
     10 C           4.3239   -3.3742   11.1775 C.ar    1  UNL1        0.0000
     11 H           5.0663   -4.1550   11.0824 H       1  UNL1        0.0000
     12 C           2.4098   -1.0042    7.6155 C.ar    1  UNL1        0.0000
     13 C           1.1993    1.1833   12.4454 C.3     1  UNL1        0.0000
     14 H           0.4767    1.9321   12.0976 H       1  UNL1        0.0000
     15 C           4.0452   -2.5506   10.1008 C.ar    1  UNL1        0.0000
     16 H           4.5716   -2.6931    9.1677 H       1  UNL1        0.0000
     17 C           4.4486    3.0292    8.4978 C.ar    1  UNL1        0.0000
     18 H           4.2387    3.9815    8.0329 H       1  UNL1        0.0000
     19 C           2.4241   -1.4210   11.4131 C.ar    1  UNL1        0.0000
     20 B           2.6799   -0.4203    9.1058 B       1  UNL1        0.0000
     21 C           5.9730    1.6384    9.6970 C.ar    1  UNL1        0.0000
     22 H           6.9278    1.4930   10.1834 H       1  UNL1        0.0000
     23 C           5.6065    0.2557    6.1085 C.3     1  UNL1        0.0000
     24 H           4.8962    0.9900    6.5083 H       1  UNL1        0.0000
     25 C           3.4934    2.0116    8.5071 C.ar    1  UNL1        0.0000
     26 C           2.6871   -2.2356   12.5036 C.ar    1  UNL1        0.0000
     27 H           2.1402   -2.1226   13.4302 H       1  UNL1        0.0000
     28 C           1.0919   -1.1221    7.1719 C.ar    1  UNL1        0.0000
     29 H           0.2829   -0.8343    7.8454 H       1  UNL1        0.0000
     30 C           1.5928    4.1257    8.0754 C.3     1  UNL1        0.0000
     31 H           2.3793    4.6699    7.5449 H       1  UNL1        0.0000
     32 C           5.9711   -2.7010    6.2216 C.3     1  UNL1        0.0000
     33 H           5.8343   -2.5860    5.1420 H       1  UNL1        0.0000
     34 C           2.0454    2.0166    6.0204 C.3     1  UNL1        0.0000
     35 H           2.5532    1.0459    5.9817 H       1  UNL1        0.0000
     36 C           5.6862    2.8452    9.0819 C.ar    1  UNL1        0.0000
     37 H           6.4173    3.6416    9.0644 H       1  UNL1        0.0000
     38 C          -0.4632   -1.1651   11.5852 C.3     1  UNL1        0.0000
     39 H          -0.4570   -1.4518   12.6420 H       1  UNL1        0.0000
     40 C           0.7531   -1.6317    5.9322 C.ar    1  UNL1        0.0000
     41 H          -0.2835   -1.7110    5.6392 H       1  UNL1        0.0000
     42 C           7.0121    0.7637    6.4242 C.3     1  UNL1        0.0000
     43 H           7.7663    0.2020    5.8779 H       1  UNL1        0.0000
     44 H           7.2166    0.6790    7.4891 H       1  UNL1        0.0000
     45 H           7.1071    1.8116    6.1404 H       1  UNL1        0.0000
     46 C           3.0691   -1.9460    5.4774 C.ar    1  UNL1        0.0000
     47 H           3.8344   -2.2920    4.7998 H       1  UNL1        0.0000
     48 C           1.6778    4.4454    9.5656 C.3     1  UNL1        0.0000
     49 H           1.4738    5.5009    9.7442 H       1  UNL1        0.0000
     50 H           2.6661    4.2171    9.9582 H       1  UNL1        0.0000
     51 H           0.9490    3.8540   10.1147 H       1  UNL1        0.0000
     52 C          -1.6756   -0.3020   11.2793 C.3     1  UNL1        0.0000
     53 H          -1.6105    0.0554   10.2477 H       1  UNL1        0.0000
     54 H          -1.7248    0.5568   11.9451 H       1  UNL1        0.0000
     55 H          -2.5957   -0.8744   11.3930 H       1  UNL1        0.0000
     56 C           5.4000    0.1607    4.6021 C.3     1  UNL1        0.0000
     57 H           5.6142    1.1292    4.1494 H       1  UNL1        0.0000
     58 H           4.3747   -0.1059    4.3584 H       1  UNL1        0.0000
     59 H           6.0727   -0.5690    4.1552 H       1  UNL1        0.0000
     60 C           0.2369    4.5359    7.5140 C.3     1  UNL1        0.0000
     61 H          -0.5181    3.8115    7.8140 H       1  UNL1        0.0000
     62 H           0.2580    4.5842    6.4286 H       1  UNL1        0.0000
     63 H          -0.0517    5.5190    7.8845 H       1  UNL1        0.0000
     64 C           5.3324   -4.0119    6.6758 C.3     1  UNL1        0.0000
     65 H           5.7206   -4.8440    6.0879 H       1  UNL1        0.0000
     66 H           4.2500   -3.9888    6.5678 H       1  UNL1        0.0000
     67 H           5.5667   -4.2021    7.7217 H       1  UNL1        0.0000
     68 C           3.6588   -3.2124   12.3846 C.ar    1  UNL1        0.0000
     69 H           3.8863   -3.8571   13.2220 H       1  UNL1        0.0000
     70 C           2.9199    3.0459    5.3141 C.3     1  UNL1        0.0000
     71 H           3.1005    2.7272    4.2882 H       1  UNL1        0.0000
     72 H           3.8830    3.1448    5.8095 H       1  UNL1        0.0000
     73 H           2.4388    4.0212    5.2808 H       1  UNL1        0.0000
     74 C           1.7516   -2.0545    5.0759 C.ar    1  UNL1        0.0000
     75 H           1.5108   -2.4665    4.1054 H       1  UNL1        0.0000
     76 C           7.4680   -2.7419    6.5211 C.3     1  UNL1        0.0000
     77 H           7.6375   -2.7420    7.5968 H       1  UNL1        0.0000
     78 H           7.9832   -1.8850    6.0969 H       1  UNL1        0.0000
     79 H           7.9124   -3.6457    6.1036 H       1  UNL1        0.0000
     80 C          -0.4446   -2.4186   10.7207 C.3     1  UNL1        0.0000
     81 H          -1.3843   -2.9626   10.8061 H       1  UNL1        0.0000
     82 H           0.3663   -3.0820   11.0153 H       1  UNL1        0.0000
     83 H          -0.2914   -2.1405    9.6791 H       1  UNL1        0.0000
     84 C           0.8726    0.7920   13.8799 C.3     1  UNL1        0.0000
     85 H           1.5512    0.0166   14.2274 H       1  UNL1        0.0000
     86 H          -0.1496    0.4331   13.9758 H       1  UNL1        0.0000
     87 H           0.9887    1.6569   14.5326 H       1  UNL1        0.0000
     88 C           2.6034    1.7637   12.3271 C.3     1  UNL1        0.0000
     89 H           2.6904    2.6962   12.8826 H       1  UNL1        0.0000
     90 H           2.8397    1.9513   11.2806 H       1  UNL1        0.0000
     91 H           3.3373    1.0581   12.7138 H       1  UNL1        0.0000
     92 C           0.6879    1.8595    5.3384 C.3     1  UNL1        0.0000
     93 H           0.2301    2.8250    5.1399 H       1  UNL1        0.0000
     94 H           0.0142    1.2835    5.9762 H       1  UNL1        0.0000
     95 H           0.7991    1.3390    4.3887 H       1  UNL1        0.0000
@<TRIPOS>BOND
     1    75    74    1
     2    57    56    1
     3    59    56    1
     4    71    70    1
     5    58    56    1
     6    95    92    1
     7    56    23    1
     8    47    46    1
     9    74    46   ar
    10    74    40   ar
    11    93    92    1
    12    33    32    1
    13    73    70    1
    14    70    72    1
    15    70    34    1
    16    92    94    1
    17    92    34    1
    18    46     7   ar
    19    41    40    1
    20    43    42    1
    21    40    28   ar
    22    35    34    1
    23    34     3    1
    24    65    64    1
    25    78    76    1
    26    79    76    1
    27    23    42    1
    28    23    24    1
    29    23     2    1
    30    45    42    1
    31    32    76    1
    32    32    64    1
    33    32     2    1
    34    42    44    1
    35    62    60    1
    36    76    77    1
    37    66    64    1
    38    64    67    1
    39     7     2    1
    40     7    12   ar
    41    28    12   ar
    42    28    29    1
    43    60    61    1
    44    60    63    1
    45    60    30    1
    46    31    30    1
    47    12    20    1
    48     3    30    1
    49     3    25    1
    50    18    17    1
    51    30    48    1
    52    17    25   ar
    53    17    36   ar
    54    25     5   ar
    55    37    36    1
    56    36    21   ar
    57     5    20    1
    58     5     8   ar
    59    20     4    1
    60    20     6    1
    61    16    15    1
    62    48    49    1
    63    48    50    1
    64    48    51    1
    65    83    80    1
    66     8    21   ar
    67     8     9    1
    68    21    22    1
    69     4     1    1
    70    15     6   ar
    71    15    10   ar
    72     6    19   ar
    73    53    52    1
    74    80    81    1
    75    80    82    1
    76    80    38    1
    77    11    10    1
    78    10    68   ar
    79     1    19    1
    80     1    38    1
    81     1    13    1
    82    52    55    1
    83    52    38    1
    84    52    54    1
    85    90    88    1
    86    19    26   ar
    87    38    39    1
    88    14    13    1
    89    88    13    1
    90    88    91    1
    91    88    89    1
    92    68    26   ar
    93    68    69    1
    94    13    84    1
    95    26    27    1
    96    84    86    1
    97    84    85    1
    98    84    87    1
