@<TRIPOS>MOLECULE
1,2
 55 56 0 0 0
SMALL
GASTEIGER

@<TRIPOS>ATOM
      1 P          -3.8265    7.8066   11.8180 P.3     1  UNL1       -0.0674
      2 N          -1.4292    9.5316   11.7723 N.pl3   1  UNL1       -0.2138
      3 C          -1.9534    9.4245   13.0250 C.ar    1  UNL1        0.0613
      4 C          -1.3873   10.0667   14.1514 C.ar    1  UNL1       -0.0378
      5 H          -0.4849   10.6488   14.0316 H       1  UNL1        0.0637
      6 C          -1.9458    9.9623   15.4017 C.ar    1  UNL1       -0.0570
      7 H          -1.4770   10.4712   16.2331 H       1  UNL1        0.0621
      8 C          -3.0945    9.2064   15.6251 C.ar    1  UNL1       -0.0497
      9 C          -3.6546    8.5604   14.5378 C.ar    1  UNL1       -0.0494
     10 H          -4.5298    7.9487   14.7015 H       1  UNL1        0.0627
     11 C          -3.1215    8.6627   13.2572 C.ar    1  UNL1        0.0002
     12 C          -3.6936    9.1040   16.9969 C.3     1  UNL1       -0.0397
     13 H          -4.1270   10.0590   17.2976 H       1  UNL1        0.0278
     14 H          -2.9322    8.8404   17.7298 H       1  UNL1        0.0278
     15 H          -4.4771    8.3497   17.0239 H       1  UNL1        0.0278
     16 C          -5.5767    8.5288   11.7463 C.3     1  UNL1       -0.0219
     17 H          -5.9315    8.2849   10.7402 H       1  UNL1        0.0346
     18 C          -5.4383   10.0453   11.8583 C.3     1  UNL1       -0.0584
     19 H          -6.3557   10.5408   11.5448 H       1  UNL1        0.0236
     20 H          -4.6238   10.3973   11.2246 H       1  UNL1        0.0236
     21 H          -5.2191   10.3331   12.8856 H       1  UNL1        0.0236
     22 C          -6.6213    8.0166   12.7328 C.3     1  UNL1       -0.0584
     23 H          -6.3605    8.2609   13.7584 H       1  UNL1        0.0236
     24 H          -6.7676    6.9434   12.6449 H       1  UNL1        0.0236
     25 H          -7.5726    8.5010   12.5124 H       1  UNL1        0.0236
     26 C          -4.0668    6.1174   12.5807 C.3     1  UNL1       -0.0219
     27 H          -4.7710    6.2123   13.4145 H       1  UNL1        0.0346
     28 C          -2.7130    5.6506   13.1080 C.3     1  UNL1       -0.0584
     29 H          -2.7492    4.5915   13.3565 H       1  UNL1        0.0236
     30 H          -2.4319    6.2035   14.0024 H       1  UNL1        0.0236
     31 H          -1.9482    5.8141   12.3429 H       1  UNL1        0.0236
     32 C          -4.6277    5.1468   11.5504 C.3     1  UNL1       -0.0584
     33 H          -3.8719    4.9574   10.7949 H       1  UNL1        0.0236
     34 H          -5.5146    5.5545   11.0666 H       1  UNL1        0.0236
     35 H          -4.8935    4.2013   12.0224 H       1  UNL1        0.0236
     36 C          -0.2820   10.3532   11.6979 C.ar    1  UNL1        0.0595
     37 C           0.9912    9.7782   11.8571 C.ar    1  UNL1       -0.0270
     38 C           2.1106   10.5951   11.8429 C.ar    1  UNL1       -0.0541
     39 H           3.0873   10.1549   11.9902 H       1  UNL1        0.0623
     40 C           2.0059   11.9718   11.6853 C.ar    1  UNL1       -0.0498
     41 C           0.7403   12.5322   11.5905 C.ar    1  UNL1       -0.0541
     42 H           0.6384   13.6068   11.5215 H       1  UNL1        0.0623
     43 C          -0.4050   11.7491   11.6210 C.ar    1  UNL1       -0.0270
     44 C           1.0879    8.3116   12.1494 C.3     1  UNL1       -0.0379
     45 H           0.6389    8.1055   13.1242 H       1  UNL1        0.0278
     46 H           2.1254    7.9863   12.1793 H       1  UNL1        0.0278
     47 H           0.5250    7.7253   11.4056 H       1  UNL1        0.0278
     48 C           3.2319   12.8337   11.6312 C.3     1  UNL1       -0.0397
     49 H           3.0385   13.8124   12.0647 H       1  UNL1        0.0278
     50 H           3.5419   12.9814   10.5953 H       1  UNL1        0.0278
     51 H           4.0567   12.3679   12.1653 H       1  UNL1        0.0278
     52 C          -1.7566   12.4026   11.6690 C.3     1  UNL1       -0.0379
     53 H          -1.9761   12.7065   12.6940 H       1  UNL1        0.0278
     54 H          -2.5393   11.7088   11.3624 H       1  UNL1        0.0278
     55 H          -1.7892   13.2897   11.0396 H       1  UNL1        0.0278
@<TRIPOS>BOND
     1    50    48    1
     2    17    16    1
     3    33    32    1
     4    55    52    1
     5    34    32    1
     6    20    18    1
     7    54    52    1
     8    47    44    1
     9    42    41    1
    10    19    18    1
    11    32    35    1
    12    32    26    1
    13    41    43   ar
    14    41    40   ar
    15    43    52    1
    16    43    36   ar
    17    48    40    1
    18    48    49    1
    19    48    51    1
    20    52    53    1
    21    40    38   ar
    22    36     2    1
    23    36    37   ar
    24    16     1    1
    25    16    18    1
    26    16    22    1
    27     2     3    1
    28     1    26    1
    29     1    11    1
    30    38    37   ar
    31    38    39    1
    32    37    44    1
    33    18    21    1
    34    44    46    1
    35    44    45    1
    36    31    28    1
    37    25    22    1
    38    26    28    1
    39    26    27    1
    40    24    22    1
    41    22    23    1
    42     3    11   ar
    43     3     4   ar
    44    28    29    1
    45    28    30    1
    46    11     9   ar
    47     5     4    1
    48     4     6   ar
    49     9    10    1
    50     9     8   ar
    51     6     8   ar
    52     6     7    1
    53     8    12    1
    54    12    15    1
    55    12    13    1
    56    12    14    1
