@<TRIPOS>MOLECULE
1,2
 55 56 0 0 0
SMALL
GASTEIGER

@<TRIPOS>ATOM
      1 P           0.1941    9.1888    8.5390 P.3     1  UNL1       -0.0674
      2 N          -2.7795    8.7663    8.5025 N.pl3   1  UNL1       -0.2138
      3 C          -2.2198    8.7137    7.2575 C.ar    1  UNL1        0.0613
      4 C          -3.0045    8.5710    6.0910 C.ar    1  UNL1       -0.0378
      5 H          -4.0783    8.4944    6.1867 H       1  UNL1        0.0637
      6 C          -2.4496    8.5303    4.8334 C.ar    1  UNL1       -0.0570
      7 H          -3.0974    8.4136    3.9754 H       1  UNL1        0.0621
      8 C          -1.0761    8.6363    4.6480 C.ar    1  UNL1       -0.0497
      9 C          -0.2895    8.8092    5.7758 C.ar    1  UNL1       -0.0494
     10 H           0.7766    8.9023    5.6314 H       1  UNL1        0.0627
     11 C          -0.8199    8.8593    7.0603 C.ar    1  UNL1        0.0002
     12 C          -0.4592    8.5558    3.2828 C.3     1  UNL1       -0.0397
     13 H           0.4137    9.2025    3.2105 H       1  UNL1        0.0278
     14 H          -1.1754    8.8474    2.5177 H       1  UNL1        0.0278
     15 H          -0.1378    7.5345    3.0719 H       1  UNL1        0.0278
     16 C           0.3749   11.0703    8.3783 C.3     1  UNL1       -0.0219
     17 H           0.9044   11.3975    9.2797 H       1  UNL1        0.0346
     18 C          -1.0342   11.6506    8.3982 C.3     1  UNL1       -0.0584
     19 H          -1.0100   12.7276    8.5591 H       1  UNL1        0.0236
     20 H          -1.6149   11.1866    9.1970 H       1  UNL1        0.0236
     21 H          -1.5301   11.4552    7.4477 H       1  UNL1        0.0236
     22 C           1.1196   11.5955    7.1546 C.3     1  UNL1       -0.0584
     23 H           0.6983   11.1870    6.2382 H       1  UNL1        0.0236
     24 H           2.1827   11.3737    7.1939 H       1  UNL1        0.0236
     25 H           1.0128   12.6794    7.1170 H       1  UNL1        0.0236
     26 C           1.9182    8.6726    7.9911 C.3     1  UNL1       -0.0219
     27 H           2.1591    9.2549    7.0969 H       1  UNL1        0.0346
     28 C           1.9875    7.1930    7.6452 C.3     1  UNL1       -0.0584
     29 H           3.0077    6.9245    7.3708 H       1  UNL1        0.0236
     30 H           1.3346    6.9526    6.8110 H       1  UNL1        0.0236
     31 H           1.6856    6.5927    8.4966 H       1  UNL1        0.0236
     32 C           2.9404    9.0070    9.0709 C.3     1  UNL1       -0.0584
     33 H           2.7630    8.3989    9.9532 H       1  UNL1        0.0236
     34 H           2.8918   10.0554    9.3562 H       1  UNL1        0.0236
     35 H           3.9462    8.7972    8.7073 H       1  UNL1        0.0236
     36 C          -4.1860    8.5810    8.5316 C.ar    1  UNL1        0.0595
     37 C          -4.7301    7.2846    8.4473 C.ar    1  UNL1       -0.0270
     38 C          -6.1062    7.1166    8.4325 C.ar    1  UNL1       -0.0541
     39 H          -6.5113    6.1159    8.3659 H       1  UNL1        0.0623
     40 C          -6.9746    8.2000    8.4637 C.ar    1  UNL1       -0.0498
     41 C          -6.4286    9.4748    8.4941 C.ar    1  UNL1       -0.0541
     42 H          -7.0874   10.3324    8.4783 H       1  UNL1        0.0623
     43 C          -5.0567    9.6826    8.5186 C.ar    1  UNL1       -0.0270
     44 C          -3.8158    6.1128    8.2899 C.3     1  UNL1       -0.0379
     45 H          -4.3550    5.1785    8.4252 H       1  UNL1        0.0278
     46 H          -2.9852    6.1850    9.0032 H       1  UNL1        0.0278
     47 H          -3.3833    6.1158    7.2878 H       1  UNL1        0.0278
     48 C          -8.4594    7.9939    8.4668 C.3     1  UNL1       -0.0397
     49 H          -8.7303    7.1247    7.8714 H       1  UNL1        0.0278
     50 H          -8.9741    8.8666    8.0714 H       1  UNL1        0.0278
     51 H          -8.8124    7.8253    9.4854 H       1  UNL1        0.0278
     52 C          -4.5187   11.0820    8.4571 C.3     1  UNL1       -0.0379
     53 H          -5.3243   11.8075    8.5424 H       1  UNL1        0.0278
     54 H          -4.0076   11.2418    7.5072 H       1  UNL1        0.0278
     55 H          -3.7993   11.2638    9.2546 H       1  UNL1        0.0278
@<TRIPOS>BOND
     1    14    12    1
     2    15    12    1
     3    13    12    1
     4    12     8    1
     5     7     6    1
     6     8     6   ar
     7     8     9   ar
     8     6     4   ar
     9    10     9    1
    10     9    11   ar
    11     4     5    1
    12     4     3   ar
    13    23    22    1
    14    30    28    1
    15    11     3   ar
    16    11     1    1
    17    27    26    1
    18    25    22    1
    19    22    24    1
    20    22    16    1
    21     3     2    1
    22    47    44    1
    23    29    28    1
    24    21    18    1
    25    54    52    1
    26    28    26    1
    27    28    31    1
    28    49    48    1
    29    26     1    1
    30    26    32    1
    31    50    48    1
    32    44    45    1
    33    44    37    1
    34    44    46    1
    35    39    38    1
    36    16    18    1
    37    16     1    1
    38    16    17    1
    39    18    19    1
    40    18    20    1
    41    38    37   ar
    42    38    40   ar
    43    37    36   ar
    44    52    43    1
    45    52    53    1
    46    52    55    1
    47    40    48    1
    48    40    41   ar
    49    48    51    1
    50    42    41    1
    51    41    43   ar
    52     2    36    1
    53    43    36   ar
    54    35    32    1
    55    32    34    1
    56    32    33    1
