@<TRIPOS>MOLECULE
1,2
 43 42 0 0 0
SMALL
GASTEIGER

@<TRIPOS>ATOM
      1 P           2.0094    2.5316   10.0709 P.3     1  UNL1        0.0000
      2 N           2.4482    1.0237    9.5138 N.3     1  UNL1        0.0000
      3 SI          1.9532   -0.5217   10.1472 Si      1  UNL1        0.0000
      4 C           0.7907   -1.5009    8.9719 C.3     1  UNL1        0.0000
      5 C           3.4686   -1.6603   10.4242 C.3     1  UNL1        0.0000
      6 C           1.0171   -0.3188   11.8015 C.3     1  UNL1        0.0000
      7 N           2.6736    2.7173   11.6592 N.3     1  UNL1        0.0000
      8 SI          1.6867    3.8663   12.5596 Si      1  UNL1        0.0000
      9 C           1.0779    5.2121   11.3470 C.3     1  UNL1        0.0000
     10 C           0.2003    2.9656   13.3550 C.3     1  UNL1        0.0000
     11 C           2.6110    4.7463   13.9679 C.3     1  UNL1        0.0000
     12 SI          4.2965    2.2211   12.1181 Si      1  UNL1        0.0000
     13 C           5.2676    1.1742   10.8568 C.3     1  UNL1        0.0000
     14 C           4.1068    1.2049   13.7249 C.3     1  UNL1        0.0000
     15 C           5.3944    3.7639   12.4287 C.3     1  UNL1        0.0000
     16 H           0.6865    2.2518   10.5600 H       1  UNL1        0.0000
     17 H           0.5700   -2.4615    9.4268 H       1  UNL1        0.0000
     18 H           1.2785   -1.7009    8.0230 H       1  UNL1        0.0000
     19 H          -0.1598   -1.0141    8.7779 H       1  UNL1        0.0000
     20 H           4.1489   -1.6239    9.5786 H       1  UNL1        0.0000
     21 H           3.1298   -2.6858   10.5244 H       1  UNL1        0.0000
     22 H           4.0241   -1.4090   11.3205 H       1  UNL1        0.0000
     23 H           1.0629   -1.2284   12.3900 H       1  UNL1        0.0000
     24 H          -0.0311   -0.0864   11.6415 H       1  UNL1        0.0000
     25 H           1.4513    0.4858   12.3824 H       1  UNL1        0.0000
     26 H           1.9016    5.6223   10.7694 H       1  UNL1        0.0000
     27 H           0.3550    4.8049   10.6464 H       1  UNL1        0.0000
     28 H           0.6013    6.0338   11.8726 H       1  UNL1        0.0000
     29 H          -0.4479    3.6757   13.8591 H       1  UNL1        0.0000
     30 H          -0.3987    2.4390   12.6198 H       1  UNL1        0.0000
     31 H           0.5256    2.2384   14.0930 H       1  UNL1        0.0000
     32 H           3.1388    4.0567   14.6139 H       1  UNL1        0.0000
     33 H           1.8887    5.2783   14.5768 H       1  UNL1        0.0000
     34 H           3.3236    5.4733   13.5995 H       1  UNL1        0.0000
     35 H           6.1033    1.7319   10.4446 H       1  UNL1        0.0000
     36 H           5.6829    0.2967   11.3414 H       1  UNL1        0.0000
     37 H           4.6342    0.8388   10.0389 H       1  UNL1        0.0000
     38 H           3.6924    0.2210   13.5273 H       1  UNL1        0.0000
     39 H           5.0726    1.0668   14.2004 H       1  UNL1        0.0000
     40 H           3.4546    1.6968   14.4390 H       1  UNL1        0.0000
     41 H           5.3232    4.0980   13.4563 H       1  UNL1        0.0000
     42 H           6.4382    3.5303   12.2432 H       1  UNL1        0.0000
     43 H           5.1265    4.6029   11.7933 H       1  UNL1        0.0000
@<TRIPOS>BOND
     1    18     4    1
     2    19     4    1
     3     4    17    1
     4     4     3    1
     5     2     1    1
     6     2     3    1
     7    20     5    1
     8    37    13    1
     9     1    16    1
    10     1     7    1
    11     3     5    1
    12     3     6    1
    13     5    21    1
    14     5    22    1
    15    35    13    1
    16    27     9    1
    17    26     9    1
    18    13    36    1
    19    13    12    1
    20     9    28    1
    21     9     8    1
    22    24     6    1
    23     7    12    1
    24     7     8    1
    25    43    15    1
    26     6    25    1
    27     6    23    1
    28    12    15    1
    29    12    14    1
    30    42    15    1
    31    15    41    1
    32     8    10    1
    33     8    11    1
    34    30    10    1
    35    10    29    1
    36    10    31    1
    37    38    14    1
    38    34    11    1
    39    14    39    1
    40    14    40    1
    41    11    33    1
    42    11    32    1
