@<TRIPOS>MOLECULE
1,2
 57 59 0 0 0
SMALL
GASTEIGER

@<TRIPOS>ATOM
      1 P          -0.6875    0.5972    5.9950 P.3     1  UNL1       -0.0664
      2 N          -2.5074    1.6803    3.8243 N.pl3   1  UNL1       -0.3355
      3 C          -2.5086    0.7778    6.0977 C.ar    1  UNL1       -0.0017
      4 C          -3.2040    1.3618    5.0366 C.ar    1  UNL1        0.0369
      5 C          -4.5731    1.5730    5.1628 C.ar    1  UNL1       -0.0398
      6 H          -5.1275    2.0255    4.3533 H       1  UNL1        0.0636
      7 C          -5.2502    1.1998    6.3072 C.ar    1  UNL1       -0.0571
      8 H          -6.3141    1.3765    6.3795 H       1  UNL1        0.0621
      9 C          -4.5795    0.5820    7.3536 C.ar    1  UNL1       -0.0497
     10 C          -3.2135    0.3801    7.2284 C.ar    1  UNL1       -0.0494
     11 H          -2.6866   -0.1066    8.0348 H       1  UNL1        0.0627
     12 C          -5.2965    0.1569    8.5996 C.3     1  UNL1       -0.0397
     13 H          -5.0165    0.8017    9.4330 H       1  UNL1        0.0278
     14 H          -5.0315   -0.8651    8.8653 H       1  UNL1        0.0278
     15 H          -6.3739    0.2166    8.4682 H       1  UNL1        0.0278
     16 C          -0.5437   -1.2447    6.2602 C.3     1  UNL1       -0.0162
     17 H          -0.9162   -1.4548    7.2710 H       1  UNL1        0.0352
     18 C          -1.3934   -2.0346    5.2679 C.3     1  UNL1       -0.0460
     19 H          -2.4416   -1.7249    5.3304 H       1  UNL1        0.0271
     20 H          -1.0314   -1.8404    4.2577 H       1  UNL1        0.0271
     21 C          -1.2785   -3.5285    5.5593 C.3     1  UNL1       -0.0525
     22 H          -1.6646   -3.7362    6.5619 H       1  UNL1        0.0265
     23 H          -1.8856   -4.0906    4.8459 H       1  UNL1        0.0265
     24 C           0.1771   -3.9770    5.4705 C.3     1  UNL1       -0.0530
     25 H           0.2540   -5.0449    5.6886 H       1  UNL1        0.0265
     26 H           0.5390   -3.8119    4.4541 H       1  UNL1        0.0265
     27 C           1.0396   -3.1757    6.4409 C.3     1  UNL1       -0.0525
     28 H           2.0835   -3.4822    6.3509 H       1  UNL1        0.0265
     29 H           0.7177   -3.3780    7.4668 H       1  UNL1        0.0265
     30 C           0.9130   -1.6842    6.1432 C.3     1  UNL1       -0.0460
     31 H           1.2505   -1.4906    5.1250 H       1  UNL1        0.0271
     32 H           1.5473   -1.1020    6.8151 H       1  UNL1        0.0271
     33 C          -0.0935    1.2976    7.6435 C.3     1  UNL1       -0.0162
     34 H           0.9459    1.5628    7.4071 H       1  UNL1        0.0352
     35 C          -0.0564    0.4209    8.8953 C.3     1  UNL1       -0.0460
     36 H          -1.0643    0.1806    9.2366 H       1  UNL1        0.0271
     37 H           0.4774   -0.5097    8.7053 H       1  UNL1        0.0271
     38 C           0.6612    1.1764   10.0153 C.3     1  UNL1       -0.0525
     39 H           0.6972    0.5538   10.9124 H       1  UNL1        0.0265
     40 H           1.6884    1.3823    9.7076 H       1  UNL1        0.0265
     41 C          -0.0466    2.4912   10.3251 C.3     1  UNL1       -0.0530
     42 H           0.4870    3.0239   11.1151 H       1  UNL1        0.0265
     43 H          -1.0567    2.2836   10.6870 H       1  UNL1        0.0265
     44 C          -0.1272    3.3554    9.0710 C.3     1  UNL1       -0.0525
     45 H           0.8810    3.6159    8.7433 H       1  UNL1        0.0265
     46 H          -0.6619    4.2822    9.2898 H       1  UNL1        0.0265
     47 C          -0.8356    2.5978    7.9522 C.3     1  UNL1       -0.0460
     48 H          -0.8729    3.2115    7.0506 H       1  UNL1        0.0271
     49 H          -1.8621    2.3805    8.2553 H       1  UNL1        0.0271
     50 C          -2.7895    0.6671    2.8196 C.3     1  UNL1        0.0004
     51 H          -2.4673   -0.3063    3.1831 H       1  UNL1        0.0428
     52 H          -2.2363    0.8951    1.9099 H       1  UNL1        0.0428
     53 H          -3.8604    0.6156    2.5685 H       1  UNL1        0.0428
     54 C          -2.8257    3.0063    3.3194 C.3     1  UNL1        0.0004
     55 H          -3.8479    3.0887    2.9235 H       1  UNL1        0.0428
     56 H          -2.1363    3.2515    2.5119 H       1  UNL1        0.0428
     57 H          -2.6938    3.7336    4.1184 H       1  UNL1        0.0428
@<TRIPOS>BOND
     1    52    50    1
     2    56    54    1
     3    53    50    1
     4    50    51    1
     5    50     2    1
     6    55    54    1
     7    54     2    1
     8    54    57    1
     9     2     4    1
    10    20    18    1
    11     6     5    1
    12    26    24    1
    13    23    21    1
    14     4     5   ar
    15     4     3   ar
    16    31    30    1
    17     5     7   ar
    18    18    19    1
    19    18    21    1
    20    18    16    1
    21    24    21    1
    22    24    25    1
    23    24    27    1
    24    21    22    1
    25     1     3    1
    26     1    16    1
    27     1    33    1
    28     3    10   ar
    29    30    16    1
    30    30    27    1
    31    30    32    1
    32    16    17    1
    33     7     8    1
    34     7     9   ar
    35    28    27    1
    36    27    29    1
    37    48    47    1
    38    10     9   ar
    39    10    11    1
    40     9    12    1
    41    34    33    1
    42    33    47    1
    43    33    35    1
    44    47    49    1
    45    47    44    1
    46    15    12    1
    47    12    14    1
    48    12    13    1
    49    37    35    1
    50    45    44    1
    51    35    36    1
    52    35    38    1
    53    44    46    1
    54    44    41    1
    55    40    38    1
    56    38    41    1
    57    38    39    1
    58    41    43    1
    59    41    42    1
