@<TRIPOS>MOLECULE
1,2
 54 57 0 0 0
SMALL
GASTEIGER

@<TRIPOS>ATOM
      1 N           7.9488    7.0496    8.0710 N.pl3   1  UNL1       -0.2455
      2 P           5.5937    8.5380    9.5615 P.3     1  UNL1       -0.0128
      3 C           8.7086    7.0260    6.8908 C.ar    1  UNL1        0.0539
      4 C           9.4557    5.8839    6.5310 C.ar    1  UNL1       -0.0276
      5 C          10.2223    5.8896    5.3757 C.ar    1  UNL1       -0.0570
      6 H          10.7938    5.0070    5.1192 H       1  UNL1        0.0621
      7 C          10.2733    7.0023    4.5572 C.ar    1  UNL1       -0.0611
      8 H          10.8728    6.9931    3.6582 H       1  UNL1        0.0618
      9 C           9.5464    8.1281    4.9036 C.ar    1  UNL1       -0.0570
     10 H           9.5738    9.0002    4.2631 H       1  UNL1        0.0621
     11 C           8.7652    8.1548    6.0477 C.ar    1  UNL1       -0.0276
     12 C           9.4701    4.6657    7.4112 C.3     1  UNL1       -0.0379
     13 H           8.7297    3.9348    7.0819 H       1  UNL1        0.0278
     14 H           9.2420    4.9408    8.4417 H       1  UNL1        0.0278
     15 H          10.4453    4.1806    7.3761 H       1  UNL1        0.0278
     16 C           7.9458    9.3797    6.3449 C.3     1  UNL1       -0.0379
     17 H           7.8706    9.5435    7.4234 H       1  UNL1        0.0278
     18 H           6.9353    9.2501    5.9536 H       1  UNL1        0.0278
     19 H           8.3798   10.2595    5.8708 H       1  UNL1        0.0278
     20 C           6.7458    6.2383    7.9844 C.3     1  UNL1        0.0570
     21 H           6.3823    5.9889    8.9935 H       1  UNL1        0.0531
     22 H           6.9207    5.2948    7.4454 H       1  UNL1        0.0531
     23 C           5.6594    7.0014    7.2575 C.ar    1  UNL1       -0.0202
     24 C           5.0409    8.1004    7.8655 C.ar    1  UNL1       -0.0099
     25 C           4.0801    8.8225    7.1684 C.ar    1  UNL1       -0.0532
     26 H           3.5866    9.6625    7.6366 H       1  UNL1        0.0624
     27 C           3.7478    8.4769    5.8690 C.ar    1  UNL1       -0.0611
     28 H           3.0008    9.0478    5.3370 H       1  UNL1        0.0618
     29 C           4.3758    7.4069    5.2565 C.ar    1  UNL1       -0.0614
     30 H           4.1278    7.1417    4.2391 H       1  UNL1        0.0618
     31 C           5.3209    6.6729    5.9531 C.ar    1  UNL1       -0.0564
     32 H           5.8100    5.8351    5.4760 H       1  UNL1        0.0621
     33 C           4.6298   10.0547    9.8962 C.ar    1  UNL1       -0.0147
     34 C           3.7189   10.1686   10.9399 C.ar    1  UNL1       -0.0535
     35 H           3.4766    9.3058   11.5434 H       1  UNL1        0.0624
     36 C           3.1202   11.3870   11.2107 C.ar    1  UNL1       -0.0611
     37 H           2.4095   11.4647   12.0208 H       1  UNL1        0.0618
     38 C           3.4334   12.5044   10.4559 C.ar    1  UNL1       -0.0617
     39 H           2.9672   13.4537   10.6744 H       1  UNL1        0.0618
     40 C           4.3536   12.4029    9.4239 C.ar    1  UNL1       -0.0611
     41 H           4.6063   13.2740    8.8370 H       1  UNL1        0.0618
     42 C           4.9535   11.1893    9.1523 C.ar    1  UNL1       -0.0535
     43 H           5.6760   11.1065    8.3503 H       1  UNL1        0.0624
     44 C           4.6252    7.2924   10.4997 C.ar    1  UNL1       -0.0147
     45 C           3.3199    6.9574   10.1519 C.ar    1  UNL1       -0.0535
     46 H           2.8517    7.4364    9.3033 H       1  UNL1        0.0624
     47 C           2.6272    6.0161   10.8908 C.ar    1  UNL1       -0.0611
     48 H           1.6140    5.7588   10.6182 H       1  UNL1        0.0618
     49 C           3.2287    5.4035   11.9791 C.ar    1  UNL1       -0.0617
     50 H           2.6836    4.6697   12.5542 H       1  UNL1        0.0618
     51 C           4.5293    5.7295   12.3258 C.ar    1  UNL1       -0.0611
     52 H           4.9995    5.2508   13.1724 H       1  UNL1        0.0618
     53 C           5.2281    6.6679   11.5865 C.ar    1  UNL1       -0.0535
     54 H           6.2539    6.9157   11.8429 H       1  UNL1        0.0624
@<TRIPOS>BOND
     1     8     7    1
     2    30    29    1
     3    10     9    1
     4     7     9   ar
     5     7     5   ar
     6     9    11   ar
     7     6     5    1
     8    29    27   ar
     9    29    31   ar
    10    28    27    1
    11     5     4   ar
    12    32    31    1
    13    27    25   ar
    14    19    16    1
    15    31    23   ar
    16    18    16    1
    17    11    16    1
    18    11     3   ar
    19    16    17    1
    20     4     3   ar
    21     4    12    1
    22     3     1    1
    23    13    12    1
    24    25    26    1
    25    25    24   ar
    26    23    24   ar
    27    23    20    1
    28    15    12    1
    29    12    14    1
    30    22    20    1
    31    24     2    1
    32    20     1    1
    33    20    21    1
    34    43    42    1
    35    41    40    1
    36    42    40   ar
    37    42    33   ar
    38    46    45    1
    39    40    38   ar
    40     2    33    1
    41     2    44    1
    42    33    34   ar
    43    45    44   ar
    44    45    47   ar
    45    38    39    1
    46    38    36   ar
    47    44    53   ar
    48    48    47    1
    49    47    49   ar
    50    34    36   ar
    51    34    35    1
    52    36    37    1
    53    53    54    1
    54    53    51   ar
    55    49    51   ar
    56    49    50    1
    57    51    52    1
