@<TRIPOS>MOLECULE
1,2
 66 69 0 0 0
SMALL
GASTEIGER

@<TRIPOS>ATOM
      1 N          -0.1856   11.3574   15.1416 N.pl3   1  UNL1       -0.2454
      2 P           1.8393   11.3472   12.6366 P.3     1  UNL1       -0.0128
      3 C           2.9626   12.7766   12.4167 C.ar    1  UNL1       -0.0147
      4 C           4.3332   12.5186   12.4272 C.ar    1  UNL1       -0.0535
      5 H           4.6786   11.4948   12.4879 H       1  UNL1        0.0624
      6 C           5.2422   13.5555   12.3501 C.ar    1  UNL1       -0.0611
      7 H           6.3016   13.3447   12.3534 H       1  UNL1        0.0618
      8 C           4.7945   14.8657   12.2770 C.ar    1  UNL1       -0.0617
      9 H           5.5043   15.6777   12.2225 H       1  UNL1        0.0618
     10 C           3.4358   15.1298   12.2767 C.ar    1  UNL1       -0.0611
     11 H           3.0835   16.1496   12.2213 H       1  UNL1        0.0618
     12 C           2.5211   14.0929   12.3490 C.ar    1  UNL1       -0.0535
     13 H           1.4622   14.3095   12.3480 H       1  UNL1        0.0624
     14 C           2.2282   10.3625   11.1404 C.ar    1  UNL1       -0.0147
     15 C           2.9543   10.8248   10.0484 C.ar    1  UNL1       -0.0535
     16 H           3.3246   11.8399   10.0337 H       1  UNL1        0.0624
     17 C           3.2006    9.9853    8.9760 C.ar    1  UNL1       -0.0611
     18 H           3.7652   10.3504    8.1302 H       1  UNL1        0.0618
     19 C           2.7263    8.6839    8.9811 C.ar    1  UNL1       -0.0617
     20 H           2.9246    8.0334    8.1421 H       1  UNL1        0.0618
     21 C           2.0006    8.2176   10.0657 C.ar    1  UNL1       -0.0611
     22 H           1.6330    7.2018   10.0745 H       1  UNL1        0.0618
     23 C           1.7579    9.0517   11.1405 C.ar    1  UNL1       -0.0535
     24 H           1.2045    8.6954   12.0004 H       1  UNL1        0.0624
     25 C           0.2401   12.0986   12.1354 C.ar    1  UNL1       -0.0099
     26 C          -0.2127   12.0790   10.8225 C.ar    1  UNL1       -0.0532
     27 H           0.3852   11.6163   10.0505 H       1  UNL1        0.0624
     28 C          -1.4279   12.6548   10.4926 C.ar    1  UNL1       -0.0611
     29 H          -1.7686   12.6399    9.4678 H       1  UNL1        0.0618
     30 C          -2.2043   13.2411   11.4769 C.ar    1  UNL1       -0.0614
     31 H          -3.1573   13.6833   11.2252 H       1  UNL1        0.0618
     32 C          -1.7583   13.2589   12.7883 C.ar    1  UNL1       -0.0564
     33 H          -2.3679   13.7119   13.5578 H       1  UNL1        0.0621
     34 C          -0.5362   12.7002   13.1323 C.ar    1  UNL1       -0.0202
     35 C          -0.0685   12.6934   14.5722 C.3     1  UNL1        0.0570
     36 H           0.9846   13.0152   14.6028 H       1  UNL1        0.0531
     37 H          -0.6687   13.4333   15.1211 H       1  UNL1        0.0531
     38 C          -1.4868   11.0397   15.5566 C.ar    1  UNL1        0.0549
     39 C          -2.2433   10.0755   14.8536 C.ar    1  UNL1       -0.0220
     40 C          -3.5367    9.7833   15.2574 C.ar    1  UNL1       -0.0565
     41 H          -4.1151    9.0531   14.7097 H       1  UNL1        0.0621
     42 C          -4.1142   10.4256   16.3359 C.ar    1  UNL1       -0.0611
     43 H          -5.1315   10.2040   16.6244 H       1  UNL1        0.0618
     44 C          -3.3700   11.3455   17.0503 C.ar    1  UNL1       -0.0565
     45 H          -3.8154   11.8273   17.9094 H       1  UNL1        0.0621
     46 C          -2.0672   11.6528   16.6916 C.ar    1  UNL1       -0.0220
     47 C          -1.6653    9.3520   13.6578 C.3     1  UNL1       -0.0197
     48 H          -0.6515    9.7446   13.4838 H       1  UNL1        0.0344
     49 C          -2.4966    9.6032   12.3983 C.3     1  UNL1       -0.0586
     50 H          -3.4785    9.1428   12.4823 H       1  UNL1        0.0235
     51 H          -1.9957    9.1850   11.5268 H       1  UNL1        0.0235
     52 H          -2.6304   10.6694   12.2378 H       1  UNL1        0.0235
     53 C          -1.5634    7.8496   13.9330 C.3     1  UNL1       -0.0586
     54 H          -2.5481    7.4230   14.1128 H       1  UNL1        0.0235
     55 H          -0.9438    7.6679   14.8094 H       1  UNL1        0.0235
     56 H          -1.1232    7.3374   13.0788 H       1  UNL1        0.0235
     57 C          -1.2618   12.5781   17.5791 C.3     1  UNL1       -0.0197
     58 H          -0.2382   12.6218   17.1888 H       1  UNL1        0.0344
     59 C          -1.8494   13.9911   17.6136 C.3     1  UNL1       -0.0586
     60 H          -2.8354   13.9851   18.0733 H       1  UNL1        0.0235
     61 H          -1.9500   14.4003   16.6100 H       1  UNL1        0.0235
     62 H          -1.2060   14.6530   18.1906 H       1  UNL1        0.0235
     63 C          -1.1744   12.0163   19.0012 C.3     1  UNL1       -0.0586
     64 H          -2.1588   11.9391   19.4576 H       1  UNL1        0.0235
     65 H          -0.5609   12.6676   19.6208 H       1  UNL1        0.0235
     66 H          -0.7210   11.0290   18.9812 H       1  UNL1        0.0235
@<TRIPOS>BOND
     1    18    17    1
     2    20    19    1
     3    17    19   ar
     4    17    15   ar
     5    19    21   ar
     6    29    28    1
     7    16    15    1
     8    15    14   ar
     9    27    26    1
    10    21    22    1
    11    21    23   ar
    12    28    26   ar
    13    28    30   ar
    14    26    25   ar
    15    14    23   ar
    16    14     2    1
    17    23    24    1
    18    31    30    1
    19    30    32   ar
    20    51    49    1
    21    25     2    1
    22    25    34   ar
    23    11    10    1
    24     9     8    1
    25    52    49    1
    26    10     8   ar
    27    10    12   ar
    28     8     6   ar
    29    13    12    1
    30    12     3   ar
    31     6     7    1
    32     6     4   ar
    33    49    50    1
    34    49    47    1
    35     3     4   ar
    36     3     2    1
    37     4     5    1
    38    32    34   ar
    39    32    33    1
    40    56    53    1
    41    34    35    1
    42    48    47    1
    43    47    53    1
    44    47    39    1
    45    53    54    1
    46    53    55    1
    47    35    36    1
    48    35    37    1
    49    35     1    1
    50    41    40    1
    51    39    40   ar
    52    39    38   ar
    53     1    38    1
    54    40    42   ar
    55    38    46   ar
    56    42    43    1
    57    42    44   ar
    58    61    59    1
    59    46    44   ar
    60    46    57    1
    61    44    45    1
    62    58    57    1
    63    57    59    1
    64    57    63    1
    65    59    60    1
    66    59    62    1
    67    66    63    1
    68    63    64    1
    69    63    65    1
