@<TRIPOS>MOLECULE
1,2
 28 28 0 0 0
SMALL
GASTEIGER

@<TRIPOS>ATOM
      1 P           4.4882   15.0750    0.9806 P.3     1  UNL1       -0.0224
      2 N           6.3431   15.3056    2.7946 N.3     1  UNL1       -0.2241
      3 C           5.7906   15.9165    1.7575 C.3     1  UNL1        0.0753
      4 H           6.2302   16.8264    1.3399 H       1  UNL1        0.0552
      5 C           7.5875   15.8331    3.3517 C.3     1  UNL1        0.0289
      6 C           8.0479   14.8344    4.4227 C.3     1  UNL1       -0.0458
      7 H           8.4734   13.9570    3.9441 H       1  UNL1        0.0248
      8 H           7.1876   14.5075    5.0135 H       1  UNL1        0.0248
      9 H           8.7974   15.2816    5.0732 H       1  UNL1        0.0248
     10 C           7.3492   17.2166    3.9827 C.3     1  UNL1       -0.0458
     11 H           7.1715   17.9624    3.2113 H       1  UNL1        0.0248
     12 H           8.2172   17.5283    4.5593 H       1  UNL1        0.0248
     13 H           6.4740   17.1810    4.6278 H       1  UNL1        0.0248
     14 C           8.6890   15.9401    2.2825 C.3     1  UNL1       -0.0458
     15 H           8.8122   14.9842    1.7792 H       1  UNL1        0.0248
     16 H           9.6309   16.2165    2.7506 H       1  UNL1        0.0248
     17 H           8.4468   16.6917    1.5352 H       1  UNL1        0.0248
     18 C           3.8427   16.2839   -0.2035 C.ar    1  UNL1       -0.0172
     19 C           3.9854   17.6682   -0.0890 C.ar    1  UNL1       -0.0538
     20 H           4.5050   18.0882    0.7596 H       1  UNL1        0.0624
     21 C           3.4484   18.5138   -1.0401 C.ar    1  UNL1       -0.0612
     22 H           3.5719   19.5829   -0.9351 H       1  UNL1        0.0618
     23 C           2.7417   18.0038   -2.1173 C.ar    1  UNL1       -0.0617
     24 H           2.3184   18.6698   -2.8547 H       1  UNL1        0.0618
     25 C           2.5755   16.6325   -2.2352 C.ar    1  UNL1       -0.0612
     26 H           2.0204   16.2262   -3.0689 H       1  UNL1        0.0618
     27 C           3.1205   15.7853   -1.2923 C.ar    1  UNL1       -0.0538
     28 H           2.9953   14.7149   -1.3878 H       1  UNL1        0.0624
@<TRIPOS>BOND
     1    26    25    1
     2    24    23    1
     3    25    23   ar
     4    25    27   ar
     5    23    21   ar
     6    28    27    1
     7    27    18   ar
     8    21    22    1
     9    21    19   ar
    10    18    19   ar
    11    18     1    1
    12    19    20    1
    13     1     3    1
    14     4     3    1
    15    17    14    1
    16     3     2    1
    17    15    14    1
    18    14    16    1
    19    14     5    1
    20     2     5    1
    21    11    10    1
    22     5    10    1
    23     5     6    1
    24     7     6    1
    25    10    12    1
    26    10    13    1
    27     6     8    1
    28     6     9    1
