@<TRIPOS>MOLECULE
2,4
 70 74 0 0 0
SMALL
GASTEIGER

@<TRIPOS>ATOM
      1 P           1.9186    3.3792    2.5458 P.3     1  UNL1        0.0000
      2 P           4.5154    1.4215    2.4166 P.3     1  UNL1        0.0000
      3 SI          3.7218    5.3545    1.0542 Si      1  UNL1        0.0000
      4 N           3.2487    3.8588    1.8345 N.3     1  UNL1        0.0000
      5 C           2.2752    2.1623    3.8641 C.ar    1  UNL1        0.0000
      6 C           3.4337    1.3865    3.8838 C.ar    1  UNL1        0.0000
      7 C           3.6784    0.5490    4.9680 C.ar    1  UNL1        0.0000
      8 C           2.7730    0.4717    6.0115 C.ar    1  UNL1        0.0000
      9 C           1.6058    1.2185    5.9753 C.ar    1  UNL1        0.0000
     10 C           1.3626    2.0653    4.9086 C.ar    1  UNL1        0.0000
     11 C           5.0259    4.8688   -0.2565 C.3     1  UNL1        0.0000
     12 C           2.2667    6.3783    0.3674 C.3     1  UNL1        0.0000
     13 C           4.6118    6.4281    2.3645 C.3     1  UNL1        0.0000
     14 C           0.5468    2.6603    1.5825 C.ar    1  UNL1        0.0000
     15 C           0.3411    1.2829    1.5895 C.ar    1  UNL1        0.0000
     16 C          -0.6356    0.7306    0.7811 C.ar    1  UNL1        0.0000
     17 C          -1.4022    1.5455   -0.0368 C.ar    1  UNL1        0.0000
     18 C          -1.1908    2.9145   -0.0526 C.ar    1  UNL1        0.0000
     19 C          -0.2133    3.4744    0.7486 C.ar    1  UNL1        0.0000
     20 C           1.2059    4.7297    3.5406 C.ar    1  UNL1        0.0000
     21 C          -0.1247    5.1256    3.5389 C.ar    1  UNL1        0.0000
     22 C          -0.5291    6.1796    4.3414 C.ar    1  UNL1        0.0000
     23 C           0.3842    6.8302    5.1538 C.ar    1  UNL1        0.0000
     24 C           1.7087    6.4207    5.1762 C.ar    1  UNL1        0.0000
     25 C           2.1160    5.3735    4.3729 C.ar    1  UNL1        0.0000
     26 C           5.2591   -0.2387    2.5163 C.ar    1  UNL1        0.0000
     27 C           6.5758   -0.4906    2.8798 C.ar    1  UNL1        0.0000
     28 C           7.0457   -1.7931    2.9058 C.ar    1  UNL1        0.0000
     29 C           6.2088   -2.8449    2.5743 C.ar    1  UNL1        0.0000
     30 C           4.8936   -2.5978    2.2100 C.ar    1  UNL1        0.0000
     31 C           4.4236   -1.3001    2.1761 C.ar    1  UNL1        0.0000
     32 C           5.8668    2.5231    2.9314 C.ar    1  UNL1        0.0000
     33 C           5.9403    3.1518    4.1671 C.ar    1  UNL1        0.0000
     34 C           6.9779    4.0309    4.4291 C.ar    1  UNL1        0.0000
     35 C           7.9394    4.2853    3.4655 C.ar    1  UNL1        0.0000
     36 C           7.8662    3.6617    2.2290 C.ar    1  UNL1        0.0000
     37 C           6.8299    2.7893    1.9607 C.ar    1  UNL1        0.0000
     38 H           4.5793   -0.0487    4.9851 H       1  UNL1        0.0000
     39 H           2.9724   -0.1810    6.8485 H       1  UNL1        0.0000
     40 H           0.8883    1.1433    6.7788 H       1  UNL1        0.0000
     41 H           0.4546    2.6526    4.8759 H       1  UNL1        0.0000
     42 H           0.9452    0.6506    2.2314 H       1  UNL1        0.0000
     43 H          -0.7907   -0.3385    0.7791 H       1  UNL1        0.0000
     44 H          -2.1552    1.1095   -0.6764 H       1  UNL1        0.0000
     45 H          -1.7740    3.5448   -0.7072 H       1  UNL1        0.0000
     46 H          -0.0089    4.5351    0.7090 H       1  UNL1        0.0000
     47 H          -0.8458    4.6091    2.9214 H       1  UNL1        0.0000
     48 H          -1.5633    6.4917    4.3336 H       1  UNL1        0.0000
     49 H           0.0623    7.6527    5.7753 H       1  UNL1        0.0000
     50 H           2.4186    6.9191    5.8201 H       1  UNL1        0.0000
     51 H           3.1434    5.0353    4.3732 H       1  UNL1        0.0000
     52 H           7.2310    0.3285    3.1414 H       1  UNL1        0.0000
     53 H           8.0709   -1.9865    3.1865 H       1  UNL1        0.0000
     54 H           6.5815   -3.8582    2.5949 H       1  UNL1        0.0000
     55 H           4.2416   -3.4173    1.9462 H       1  UNL1        0.0000
     56 H           3.4031   -1.0875    1.8794 H       1  UNL1        0.0000
     57 H           5.1891    2.9588    4.9211 H       1  UNL1        0.0000
     58 H           7.0338    4.5229    5.3898 H       1  UNL1        0.0000
     59 H           8.7432    4.9754    3.6757 H       1  UNL1        0.0000
     60 H           8.6135    3.8644    1.4758 H       1  UNL1        0.0000
     61 H           6.7458    2.3027    0.9954 H       1  UNL1        0.0000
     62 H           4.7992    5.3302   -1.2116 H       1  UNL1        0.0000
     63 H           6.0232    5.1786    0.0410 H       1  UNL1        0.0000
     64 H           5.0351    3.7836   -0.4167 H       1  UNL1        0.0000
     65 H           2.6151    7.3428    0.0118 H       1  UNL1        0.0000
     66 H           1.7910    5.8636   -0.4611 H       1  UNL1        0.0000
     67 H           1.5198    6.5593    1.1379 H       1  UNL1        0.0000
     68 H           5.2167    7.1734    1.8601 H       1  UNL1        0.0000
     69 H           3.9101    6.9555    3.0011 H       1  UNL1        0.0000
     70 H           5.2718    5.8427    2.9965 H       1  UNL1        0.0000
@<TRIPOS>BOND
     1    62    11    1
     2    45    18    1
     3    44    17    1
     4    66    12    1
     5    64    11    1
     6    11    63    1
     7    11     3    1
     8    18    17   ar
     9    18    19   ar
    10    17    16   ar
    11    65    12    1
    12    12     3    1
    13    12    67    1
    14    46    19    1
    15    19    14   ar
    16    43    16    1
    17    16    15   ar
    18    61    37    1
    19     3     4    1
    20     3    13    1
    21    60    36    1
    22    14    15   ar
    23    14     1    1
    24    15    42    1
    25     4     1    1
    26    68    13    1
    27    56    31    1
    28    55    30    1
    29    37    36   ar
    30    37    32   ar
    31    31    30   ar
    32    31    26   ar
    33    30    29   ar
    34    36    35   ar
    35    13    70    1
    36    13    69    1
    37     2    26    1
    38     2    32    1
    39     2     6    1
    40    26    27   ar
    41     1    20    1
    42     1     5    1
    43    29    54    1
    44    29    28   ar
    45    27    28   ar
    46    27    52    1
    47    28    53    1
    48    47    21    1
    49    32    33   ar
    50    35    59    1
    51    35    34   ar
    52    21    20   ar
    53    21    22   ar
    54    20    25   ar
    55     5     6   ar
    56     5    10   ar
    57     6     7   ar
    58    33    34   ar
    59    33    57    1
    60    48    22    1
    61    22    23   ar
    62    25    51    1
    63    25    24   ar
    64    34    58    1
    65    41    10    1
    66    10     9   ar
    67     7    38    1
    68     7     8   ar
    69    23    24   ar
    70    23    49    1
    71    24    50    1
    72     9     8   ar
    73     9    40    1
    74     8    39    1
