@<TRIPOS>MOLECULE
1,2
 51 54 0 0 0
SMALL
GASTEIGER

@<TRIPOS>ATOM
      1 N           1.3076   12.6079    5.0846 N.pl3   1  UNL1       -0.2138
      2 P           2.5041   13.3694    7.8047 P.3     1  UNL1       -0.0112
      3 C           4.2892   13.4563    8.1998 C.ar    1  UNL1       -0.0146
      4 C           4.7498   14.6636    8.7246 C.ar    1  UNL1       -0.0535
      5 H           4.0459   15.4682    8.8953 H       1  UNL1        0.0624
      6 C           6.0878   14.8366    9.0222 C.ar    1  UNL1       -0.0611
      7 H           6.4329   15.7742    9.4340 H       1  UNL1        0.0618
      8 C           6.9872   13.8094    8.7837 C.ar    1  UNL1       -0.0617
      9 H           8.0345   13.9436    9.0109 H       1  UNL1        0.0618
     10 C           6.5407   12.6164    8.2420 C.ar    1  UNL1       -0.0611
     11 H           7.2420   11.8184    8.0438 H       1  UNL1        0.0618
     12 C           5.2000   12.4387    7.9457 C.ar    1  UNL1       -0.0535
     13 H           4.8646   11.5099    7.5081 H       1  UNL1        0.0624
     14 C           1.7729   13.1284    9.4666 C.ar    1  UNL1       -0.0146
     15 C           2.4017   13.4634   10.6594 C.ar    1  UNL1       -0.0535
     16 H           3.4139   13.8406   10.6530 H       1  UNL1        0.0624
     17 C           1.7390   13.3011   11.8642 C.ar    1  UNL1       -0.0611
     18 H           2.2397   13.5577   12.7867 H       1  UNL1        0.0618
     19 C           0.4444   12.8128   11.8923 C.ar    1  UNL1       -0.0617
     20 H          -0.0683   12.6897   12.8347 H       1  UNL1        0.0618
     21 C          -0.1904   12.4793   10.7058 C.ar    1  UNL1       -0.0611
     22 H          -1.1997   12.0944   10.7217 H       1  UNL1        0.0618
     23 C           0.4677   12.6391    9.5030 C.ar    1  UNL1       -0.0535
     24 H          -0.0204   12.3697    8.5743 H       1  UNL1        0.0624
     25 C           2.2528   11.7031    7.1289 C.ar    1  UNL1        0.0083
     26 C           2.5830   10.5939    7.9041 C.ar    1  UNL1       -0.0517
     27 H           2.9842   10.7555    8.8973 H       1  UNL1        0.0625
     28 C           2.3956    9.3097    7.4382 C.ar    1  UNL1       -0.0610
     29 H           2.6569    8.4595    8.0494 H       1  UNL1        0.0618
     30 C           1.8638    9.1323    6.1649 C.ar    1  UNL1       -0.0599
     31 H           1.7216    8.1327    5.7775 H       1  UNL1        0.0618
     32 C           1.5085   10.2099    5.3926 C.ar    1  UNL1       -0.0381
     33 H           1.0958   10.0492    4.4059 H       1  UNL1        0.0637
     34 C           1.6689   11.5427    5.8434 C.ar    1  UNL1        0.0619
     35 C           0.4919   12.3501    3.9625 C.ar    1  UNL1        0.0595
     36 C           1.0117   12.4970    2.6657 C.ar    1  UNL1       -0.0272
     37 C           0.1930   12.2786    1.5696 C.ar    1  UNL1       -0.0570
     38 H           0.6026   12.3769    0.5731 H       1  UNL1        0.0621
     39 C          -1.1333   11.9177    1.7334 C.ar    1  UNL1       -0.0611
     40 H          -1.7606   11.7427    0.8714 H       1  UNL1        0.0618
     41 C          -1.6485   11.7736    3.0094 C.ar    1  UNL1       -0.0570
     42 H          -2.6839   11.4906    3.1411 H       1  UNL1        0.0621
     43 C          -0.8558   11.9792    4.1283 C.ar    1  UNL1       -0.0272
     44 C          -1.4272   11.8260    5.5067 C.3     1  UNL1       -0.0379
     45 H          -2.5137   11.7809    5.4703 H       1  UNL1        0.0278
     46 H          -1.1197   12.6678    6.1347 H       1  UNL1        0.0278
     47 H          -1.0573   10.9116    5.9731 H       1  UNL1        0.0278
     48 C           2.4552   12.8622    2.4933 C.3     1  UNL1       -0.0379
     49 H           2.7025   13.7361    3.1109 H       1  UNL1        0.0278
     50 H           2.6822   13.0732    1.4500 H       1  UNL1        0.0278
     51 H           3.0889   12.0387    2.8241 H       1  UNL1        0.0278
@<TRIPOS>BOND
     1    38    37    1
     2    40    39    1
     3    50    48    1
     4    37    39   ar
     5    37    36   ar
     6    39    41   ar
     7    48    36    1
     8    48    51    1
     9    48    49    1
    10    36    35   ar
    11    41    42    1
    12    41    43   ar
    13    35    43   ar
    14    35     1    1
    15    43    44    1
    16    33    32    1
    17     1    34    1
    18    32    34   ar
    19    32    30   ar
    20    45    44    1
    21    44    47    1
    22    44    46    1
    23    31    30    1
    24    34    25   ar
    25    30    28   ar
    26    25     2    1
    27    25    26   ar
    28    28    26   ar
    29    28    29    1
    30    13    12    1
    31     2     3    1
    32     2    14    1
    33    26    27    1
    34    12     3   ar
    35    12    10   ar
    36    11    10    1
    37     3     4   ar
    38    10     8   ar
    39    24    23    1
    40     4     5    1
    41     4     6   ar
    42     8     9    1
    43     8     6   ar
    44     6     7    1
    45    14    23   ar
    46    14    15   ar
    47    23    21   ar
    48    16    15    1
    49    15    17   ar
    50    21    22    1
    51    21    19   ar
    52    17    19   ar
    53    17    18    1
    54    19    20    1
