@<TRIPOS>MOLECULE
1,2
 70 71 0 0 0
SMALL
GASTEIGER

@<TRIPOS>ATOM
      1 N          12.4311    8.1954    3.1123 N.3     1  UNL1        0.0000
      2 P          11.0038    5.4493    2.5853 P.3     1  UNL1        0.0000
      3 P          13.2707    7.4322    1.9710 P.3     1  UNL1        0.0000
      4 SI         11.9021    9.8509    3.0715 Si      1  UNL1        0.0000
      5 SI         12.5755    2.9734    1.1184 Si      1  UNL1        0.0000
      6 C          12.6582    5.7157    1.8271 C.2     1  UNL1        0.0000
      7 C          13.3487    4.7150    1.2694 C.2     1  UNL1        0.0000
      8 C          10.0563    6.4633    1.4193 C.ar    1  UNL1        0.0000
      9 C          10.4674    6.6286    0.0907 C.ar    1  UNL1        0.0000
     10 H          11.4068    6.1990   -0.2308 H       1  UNL1        0.0000
     11 C           9.6802    7.3014   -0.8241 C.ar    1  UNL1        0.0000
     12 H          10.0295    7.4250   -1.8411 H       1  UNL1        0.0000
     13 C           8.4428    7.8006   -0.4528 C.ar    1  UNL1        0.0000
     14 H           7.8291    8.3270   -1.1689 H       1  UNL1        0.0000
     15 C           7.9935    7.5928    0.8429 C.ar    1  UNL1        0.0000
     16 H           7.0185    7.9544    1.1376 H       1  UNL1        0.0000
     17 C           8.7807    6.9299    1.7615 C.ar    1  UNL1        0.0000
     18 H           8.4096    6.7748    2.7626 H       1  UNL1        0.0000
     19 C          14.6875    4.8892    0.6921 C.ar    1  UNL1        0.0000
     20 C          15.8349    4.6443    1.4403 C.ar    1  UNL1        0.0000
     21 H          15.7357    4.3660    2.4775 H       1  UNL1        0.0000
     22 C          17.0859    4.7771    0.8665 C.ar    1  UNL1        0.0000
     23 H          17.9696    4.5876    1.4582 H       1  UNL1        0.0000
     24 C          17.2108    5.1493   -0.4622 C.ar    1  UNL1        0.0000
     25 H          18.1888    5.2513   -0.9091 H       1  UNL1        0.0000
     26 C          16.0741    5.3818   -1.2181 C.ar    1  UNL1        0.0000
     27 H          16.1638    5.6634   -2.2577 H       1  UNL1        0.0000
     28 C          14.8218    5.2458   -0.6470 C.ar    1  UNL1        0.0000
     29 H          13.9336    5.4020   -1.2442 H       1  UNL1        0.0000
     30 C          13.6586    2.1382   -0.2274 C.3     1  UNL1        0.0000
     31 H          14.6973    2.0489    0.0748 H       1  UNL1        0.0000
     32 H          13.6421    2.7063   -1.1522 H       1  UNL1        0.0000
     33 H          13.2936    1.1428   -0.4555 H       1  UNL1        0.0000
     34 C          10.7985    2.9750    0.4143 C.3     1  UNL1        0.0000
     35 H          10.0482    2.9409    1.1956 H       1  UNL1        0.0000
     36 H          10.6522    2.1155   -0.2327 H       1  UNL1        0.0000
     37 H          10.6053    3.8663   -0.1728 H       1  UNL1        0.0000
     38 C          12.7143    1.9074    2.7289 C.3     1  UNL1        0.0000
     39 C          12.4703    0.4389    2.3750 C.3     1  UNL1        0.0000
     40 H          11.4980    0.3103    1.9064 H       1  UNL1        0.0000
     41 H          12.4977   -0.1734    3.2758 H       1  UNL1        0.0000
     42 H          13.2320    0.0705    1.6937 H       1  UNL1        0.0000
     43 C          11.6852    2.3263    3.7740 C.3     1  UNL1        0.0000
     44 H          10.6740    2.2471    3.3845 H       1  UNL1        0.0000
     45 H          11.8556    3.3613    4.0790 H       1  UNL1        0.0000
     46 H          11.7620    1.6940    4.6586 H       1  UNL1        0.0000
     47 C          14.1062    2.0447    3.3458 C.3     1  UNL1        0.0000
     48 H          14.8813    1.7720    2.6331 H       1  UNL1        0.0000
     49 H          14.1991    1.3932    4.2147 H       1  UNL1        0.0000
     50 H          14.2737    3.0688    3.6697 H       1  UNL1        0.0000
     51 C          13.1546    8.2657    0.3406 C.3     1  UNL1        0.0000
     52 H          12.1217    8.5103    0.1131 H       1  UNL1        0.0000
     53 H          13.5564    7.6145   -0.4308 H       1  UNL1        0.0000
     54 H          13.7467    9.1764    0.3781 H       1  UNL1        0.0000
     55 C          15.0867    7.6021    2.2424 C.3     1  UNL1        0.0000
     56 H          15.4393    6.9547    3.0396 H       1  UNL1        0.0000
     57 H          15.2677    8.6427    2.5121 H       1  UNL1        0.0000
     58 H          15.6192    7.3707    1.3240 H       1  UNL1        0.0000
     59 C          10.2693   10.0940    2.1052 C.3     1  UNL1        0.0000
     60 H           9.4520    9.5476    2.5658 H       1  UNL1        0.0000
     61 H          10.3401    9.7564    1.0753 H       1  UNL1        0.0000
     62 H          10.0004   11.1456    2.0901 H       1  UNL1        0.0000
     63 C          11.6978   10.4124    4.8942 C.3     1  UNL1        0.0000
     64 H          11.7672    9.5797    5.5930 H       1  UNL1        0.0000
     65 H          10.7257   10.8767    5.0282 H       1  UNL1        0.0000
     66 H          12.4494   11.1453    5.1731 H       1  UNL1        0.0000
     67 C          13.1836   11.0695    2.3240 C.3     1  UNL1        0.0000
     68 H          14.2091   10.8102    2.5684 H       1  UNL1        0.0000
     69 H          13.0000   12.0658    2.7115 H       1  UNL1        0.0000
     70 H          13.0997   11.1298    1.2450 H       1  UNL1        0.0000
@<TRIPOS>BOND
     1    27    26    1
     2    12    11    1
     3    29    28    1
     4    26    28   ar
     5    26    24   ar
     6    14    13    1
     7    32    30    1
     8    25    24    1
     9    11    13   ar
    10    11     9   ar
    11    28    19   ar
    12    24    22   ar
    13    33    30    1
    14    13    15   ar
    15    53    51    1
    16    36    34    1
    17    10     9    1
    18    30    31    1
    19    30     5    1
    20    37    34    1
    21     9     8   ar
    22    52    51    1
    23    51    54    1
    24    51     3    1
    25    34     5    1
    26    34    35    1
    27    19     7    1
    28    19    20   ar
    29    15    16    1
    30    15    17   ar
    31    22    20   ar
    32    22    23    1
    33    61    59    1
    34     5     7    1
    35     5    38    1
    36    70    67    1
    37     7     6    2
    38    58    55    1
    39     8    17   ar
    40     8     2    1
    41    20    21    1
    42    42    39    1
    43    17    18    1
    44     6     3    1
    45     6     2    1
    46    40    39    1
    47     3    55    1
    48     3     1    1
    49    62    59    1
    50    59    60    1
    51    59     4    1
    52    55    57    1
    53    55    56    1
    54    67    68    1
    55    67    69    1
    56    67     4    1
    57    39    38    1
    58    39    41    1
    59    48    47    1
    60    38    47    1
    61    38    43    1
    62     4     1    1
    63     4    63    1
    64    47    50    1
    65    47    49    1
    66    44    43    1
    67    43    45    1
    68    43    46    1
    69    63    65    1
    70    63    66    1
    71    63    64    1
