@<TRIPOS>MOLECULE
1,2
 70 71 0 0 0
SMALL
GASTEIGER

@<TRIPOS>ATOM
      1 N          12.1393    7.5559    6.7250 N.3     1  UNL1        0.0000
      2 P          10.6935    4.8534    6.0591 P.3     1  UNL1        0.0000
      3 P          10.8439    7.4615    7.6753 P.3     1  UNL1        0.0000
      4 SI         13.7552    7.9668    7.2179 Si      1  UNL1        0.0000
      5 SI          7.5482    4.3622    6.8775 Si      1  UNL1        0.0000
      6 C           9.8089    6.0547    7.1348 C.2     1  UNL1        0.0000
      7 C           8.5143    5.9128    7.4400 C.2     1  UNL1        0.0000
      8 C          11.8437    4.2335    7.3156 C.ar    1  UNL1        0.0000
      9 C          11.4963    4.2019    8.6720 C.ar    1  UNL1        0.0000
     10 H          10.5494    4.6201    8.9863 H       1  UNL1        0.0000
     11 C          12.3255    3.6180    9.6105 C.ar    1  UNL1        0.0000
     12 H          12.0368    3.6194   10.6535 H       1  UNL1        0.0000
     13 C          13.5114    3.0169    9.2222 C.ar    1  UNL1        0.0000
     14 H          14.1590    2.5616    9.9569 H       1  UNL1        0.0000
     15 C          13.8422    2.9865    7.8756 C.ar    1  UNL1        0.0000
     16 H          14.7523    2.4981    7.5572 H       1  UNL1        0.0000
     17 C          13.0212    3.5764    6.9368 C.ar    1  UNL1        0.0000
     18 H          13.2959    3.5366    5.8943 H       1  UNL1        0.0000
     19 C           7.7742    6.8797    8.2607 C.ar    1  UNL1        0.0000
     20 C           7.0454    7.9126    7.6787 C.ar    1  UNL1        0.0000
     21 H           7.0651    8.0296    6.6069 H       1  UNL1        0.0000
     22 C           6.3233    8.7896    8.4669 C.ar    1  UNL1        0.0000
     23 H           5.7640    9.5896    8.0040 H       1  UNL1        0.0000
     24 C           6.3119    8.6460    9.8448 C.ar    1  UNL1        0.0000
     25 H           5.7460    9.3311   10.4586 H       1  UNL1        0.0000
     26 C           7.0232    7.6129   10.4316 C.ar    1  UNL1        0.0000
     27 H           7.0114    7.4890   11.5051 H       1  UNL1        0.0000
     28 C           7.7432    6.7323    9.6448 C.ar    1  UNL1        0.0000
     29 H           8.2777    5.9100   10.1010 H       1  UNL1        0.0000
     30 C           6.0189    4.3644    8.0364 C.3     1  UNL1        0.0000
     31 H           6.3172    4.3435    9.0799 H       1  UNL1        0.0000
     32 H           5.3993    3.4916    7.8620 H       1  UNL1        0.0000
     33 H           5.3979    5.2440    7.8988 H       1  UNL1        0.0000
     34 C           8.4546    2.7175    7.2327 C.3     1  UNL1        0.0000
     35 H           9.1397    2.8157    8.0679 H       1  UNL1        0.0000
     36 H           9.0356    2.3770    6.3835 H       1  UNL1        0.0000
     37 H           7.7369    1.9428    7.4845 H       1  UNL1        0.0000
     38 C           6.9028    4.4516    5.0541 C.3     1  UNL1        0.0000
     39 C           6.3192    5.8331    4.7580 C.3     1  UNL1        0.0000
     40 H           5.5267    6.0839    5.4595 H       1  UNL1        0.0000
     41 H           5.9023    5.8582    3.7513 H       1  UNL1        0.0000
     42 H           7.0961    6.5906    4.8233 H       1  UNL1        0.0000
     43 C           8.0152    4.1760    4.0474 C.3     1  UNL1        0.0000
     44 H           8.4634    3.2005    4.2146 H       1  UNL1        0.0000
     45 H           8.7987    4.9327    4.1314 H       1  UNL1        0.0000
     46 H           7.6238    4.2035    3.0304 H       1  UNL1        0.0000
     47 C           5.8091    3.3989    4.8616 C.3     1  UNL1        0.0000
     48 H           4.9560    3.6012    5.5030 H       1  UNL1        0.0000
     49 H           6.1843    2.4049    5.0910 H       1  UNL1        0.0000
     50 H           5.4634    3.4020    3.8283 H       1  UNL1        0.0000
     51 C          11.2880    7.2536    9.4431 C.3     1  UNL1        0.0000
     52 H          12.0429    6.4814    9.5550 H       1  UNL1        0.0000
     53 H          10.4022    6.9864   10.0126 H       1  UNL1        0.0000
     54 H          11.6745    8.1996    9.8134 H       1  UNL1        0.0000
     55 C           9.9730    9.0825    7.7939 C.3     1  UNL1        0.0000
     56 H           9.3937    9.2974    6.9011 H       1  UNL1        0.0000
     57 H          10.7422    9.8444    7.9203 H       1  UNL1        0.0000
     58 H           9.3182    9.0852    8.6610 H       1  UNL1        0.0000
     59 C          14.7349    6.4742    7.9045 C.3     1  UNL1        0.0000
     60 H          14.2397    6.0029    8.7485 H       1  UNL1        0.0000
     61 H          15.7171    6.7965    8.2358 H       1  UNL1        0.0000
     62 H          14.8732    5.7093    7.1467 H       1  UNL1        0.0000
     63 C          13.8468    9.3526    8.5434 C.3     1  UNL1        0.0000
     64 H          13.0806   10.1115    8.4190 H       1  UNL1        0.0000
     65 H          14.8086    9.8495    8.4778 H       1  UNL1        0.0000
     66 H          13.7653    8.9538    9.5479 H       1  UNL1        0.0000
     67 C          14.6340    8.7007    5.6790 C.3     1  UNL1        0.0000
     68 H          14.0600    8.5511    4.7654 H       1  UNL1        0.0000
     69 H          15.5994    8.2226    5.5452 H       1  UNL1        0.0000
     70 H          14.8114    9.7665    5.7906 H       1  UNL1        0.0000
@<TRIPOS>BOND
     1    46    43    1
     2    41    39    1
     3    50    47    1
     4    43    45    1
     5    43    44    1
     6    43    38    1
     7    39    42    1
     8    39    38    1
     9    39    40    1
    10    68    67    1
    11    47    38    1
    12    47    49    1
    13    47    48    1
    14    38     5    1
    15    69    67    1
    16    67    70    1
    17    67     4    1
    18    18    17    1
    19     2     6    1
    20     2     8    1
    21    36    34    1
    22    21    20    1
    23     1     4    1
    24     1     3    1
    25     5    34    1
    26     5     7    1
    27     5    30    1
    28    56    55    1
    29    17     8   ar
    30    17    15   ar
    31     6     7    2
    32     6     3    1
    33    62    59    1
    34     4    59    1
    35     4    63    1
    36    34    37    1
    37    34    35    1
    38     8     9   ar
    39     7    19    1
    40    16    15    1
    41     3    55    1
    42     3    51    1
    43    20    19   ar
    44    20    22   ar
    45    55    57    1
    46    55    58    1
    47    32    30    1
    48    15    13   ar
    49    33    30    1
    50    59    61    1
    51    59    60    1
    52    23    22    1
    53    30    31    1
    54    19    28   ar
    55    64    63    1
    56    22    24   ar
    57    65    63    1
    58    63    66    1
    59     9    10    1
    60     9    11   ar
    61    13    11   ar
    62    13    14    1
    63    51    52    1
    64    51    54    1
    65    51    53    1
    66    11    12    1
    67    28    29    1
    68    28    26   ar
    69    24    26   ar
    70    24    25    1
    71    26    27    1
