@<TRIPOS>MOLECULE
1,3
 51 53 0 0 0
SMALL
GASTEIGER

@<TRIPOS>ATOM
      1 P          -2.4657    1.4788    3.2873 P.3     1  UNL1        0.0000
      2 SI         -0.6097    5.6580    2.7603 Si      1  UNL1        0.0000
      3 N          -1.5159    4.1459    2.7472 N.3     1  UNL1        0.0000
      4 N          -3.4043    2.8430    2.8306 N.3     1  UNL1        0.0000
      5 C          -2.7801    4.0317    2.5829 C.3     1  UNL1        0.0000
      6 C          -3.6969    5.0900    2.1022 C.ar    1  UNL1        0.0000
      7 C          -4.8074    5.4673    2.8506 C.ar    1  UNL1        0.0000
      8 C          -5.6665    6.4405    2.3729 C.ar    1  UNL1        0.0000
      9 C          -5.4397    7.0210    1.1358 C.ar    1  UNL1        0.0000
     10 C          -4.3487    6.6295    0.3767 C.ar    1  UNL1        0.0000
     11 C          -3.4758    5.6711    0.8580 C.ar    1  UNL1        0.0000
     12 C          -3.1044    1.2088    4.9776 C.ar    1  UNL1        0.0000
     13 C          -3.2255    2.3034    5.8290 C.ar    1  UNL1        0.0000
     14 C          -3.5849    2.1203    7.1507 C.ar    1  UNL1        0.0000
     15 C          -3.8035    0.8407    7.6371 C.ar    1  UNL1        0.0000
     16 C          -3.6533   -0.2546    6.8022 C.ar    1  UNL1        0.0000
     17 C          -3.2980   -0.0745    5.4777 C.ar    1  UNL1        0.0000
     18 C          -3.3853    0.1919    2.3762 C.ar    1  UNL1        0.0000
     19 C          -4.7604    0.0295    2.5283 C.ar    1  UNL1        0.0000
     20 C          -5.4264   -0.9380    1.7995 C.ar    1  UNL1        0.0000
     21 C          -4.7254   -1.7516    0.9223 C.ar    1  UNL1        0.0000
     22 C          -3.3562   -1.6007    0.7763 C.ar    1  UNL1        0.0000
     23 C          -2.6860   -0.6302    1.5013 C.ar    1  UNL1        0.0000
     24 C          -1.6856    7.2013    3.1187 C.3     1  UNL1        0.0000
     25 C           0.5970    5.5090    4.2269 C.3     1  UNL1        0.0000
     26 C           0.2759    5.8332    1.0791 C.3     1  UNL1        0.0000
     27 H          -4.9824    5.0160    3.8175 H       1  UNL1        0.0000
     28 H          -6.5168    6.7441    2.9652 H       1  UNL1        0.0000
     29 H          -6.1149    7.7761    0.7626 H       1  UNL1        0.0000
     30 H          -4.1770    7.0742   -0.5920 H       1  UNL1        0.0000
     31 H          -2.6248    5.3549    0.2746 H       1  UNL1        0.0000
     32 H          -3.0267    3.2977    5.4464 H       1  UNL1        0.0000
     33 H          -3.6855    2.9724    7.8072 H       1  UNL1        0.0000
     34 H          -4.0797    0.6973    8.6711 H       1  UNL1        0.0000
     35 H          -3.8079   -1.2520    7.1868 H       1  UNL1        0.0000
     36 H          -3.1688   -0.9264    4.8236 H       1  UNL1        0.0000
     37 H          -5.3030    0.6494    3.2314 H       1  UNL1        0.0000
     38 H          -6.4930   -1.0628    1.9177 H       1  UNL1        0.0000
     39 H          -5.2492   -2.5075    0.3564 H       1  UNL1        0.0000
     40 H          -2.8107   -2.2394    0.0981 H       1  UNL1        0.0000
     41 H          -1.6159   -0.5015    1.4017 H       1  UNL1        0.0000
     42 H          -1.0512    8.0105    3.4656 H       1  UNL1        0.0000
     43 H          -2.2181    7.5580    2.2441 H       1  UNL1        0.0000
     44 H          -2.4210    7.0104    3.8942 H       1  UNL1        0.0000
     45 H           1.3473    4.7467    4.0452 H       1  UNL1        0.0000
     46 H           1.1144    6.4493    4.3899 H       1  UNL1        0.0000
     47 H           0.0852    5.2525    5.1503 H       1  UNL1        0.0000
     48 H           0.4542    4.8584    0.6327 H       1  UNL1        0.0000
     49 H          -0.2919    6.4315    0.3724 H       1  UNL1        0.0000
     50 H           1.2409    6.3114    1.2077 H       1  UNL1        0.0000
     51 H          -4.3971    2.7770    2.6331 H       1  UNL1        0.0000
@<TRIPOS>BOND
     1    30    10    1
     2    40    22    1
     3    31    11    1
     4    39    21    1
     5    49    26    1
     6    10    11   ar
     7    10     9   ar
     8    48    26    1
     9    29     9    1
    10    22    21   ar
    11    22    23   ar
    12    11     6   ar
    13    21    20   ar
    14    26    50    1
    15    26     2    1
    16     9     8   ar
    17    41    23    1
    18    23    18   ar
    19    20    38    1
    20    20    19   ar
    21     6     5    1
    22     6     7   ar
    23    43    24    1
    24     8     7   ar
    25     8    28    1
    26    18    19   ar
    27    18     1    1
    28    19    37    1
    29     5     3    1
    30     5     4    1
    31    51     4    1
    32     3     2    1
    33     2    24    1
    34     2    25    1
    35     4     1    1
    36     7    27    1
    37    24    42    1
    38    24    44    1
    39     1    12    1
    40    45    25    1
    41    25    46    1
    42    25    47    1
    43    36    17    1
    44    12    17   ar
    45    12    13   ar
    46    32    13    1
    47    17    16   ar
    48    13    14   ar
    49    16    35    1
    50    16    15   ar
    51    14    15   ar
    52    14    33    1
    53    15    34    1
