@<TRIPOS>MOLECULE
1,4
 51 53 0 0 0
SMALL
GASTEIGER

@<TRIPOS>ATOM
      1 P          -1.9861    3.9907    8.2464 P.3     1  UNL1        0.0000
      2 SI          0.1362    4.9641   12.1080 Si      1  UNL1        0.0000
      3 N          -1.5196    5.6174    8.5386 N.3     1  UNL1        0.0000
      4 N          -0.7663    4.9848   10.5984 N.3     1  UNL1        0.0000
      5 C          -1.4304    3.6973    6.5459 C.ar    1  UNL1        0.0000
      6 C          -2.0377    2.6624    5.8387 C.ar    1  UNL1        0.0000
      7 C          -1.5965    2.3363    4.5713 C.ar    1  UNL1        0.0000
      8 C          -0.5365    3.0301    4.0092 C.ar    1  UNL1        0.0000
      9 C           0.0797    4.0491    4.7160 C.ar    1  UNL1        0.0000
     10 C          -0.3618    4.3839    5.9835 C.ar    1  UNL1        0.0000
     11 C          -3.7812    4.2812    8.0229 C.ar    1  UNL1        0.0000
     12 C          -4.2871    4.7887    6.8304 C.ar    1  UNL1        0.0000
     13 C          -5.6354    5.0781    6.7231 C.ar    1  UNL1        0.0000
     14 C          -6.4807    4.8695    7.8015 C.ar    1  UNL1        0.0000
     15 C          -5.9757    4.3771    8.9939 C.ar    1  UNL1        0.0000
     16 C          -4.6279    4.0862    9.1087 C.ar    1  UNL1        0.0000
     17 C          -1.0058    5.9243    9.7648 C.3     1  UNL1        0.0000
     18 C          -0.7480    7.3541   10.0240 C.ar    1  UNL1        0.0000
     19 C           0.0840    8.0757    9.1741 C.ar    1  UNL1        0.0000
     20 C           0.3464    9.4084    9.4346 C.ar    1  UNL1        0.0000
     21 C          -0.2338   10.0309   10.5278 C.ar    1  UNL1        0.0000
     22 C          -1.0770    9.3182   11.3649 C.ar    1  UNL1        0.0000
     23 C          -1.3320    7.9817   11.1186 C.ar    1  UNL1        0.0000
     24 C           1.5619    6.2242   12.0927 C.3     1  UNL1        0.0000
     25 C          -1.0438    5.2024   13.5836 C.3     1  UNL1        0.0000
     26 C           0.8320    3.1765   12.0684 C.3     1  UNL1        0.0000
     27 H          -2.8593    2.1199    6.2887 H       1  UNL1        0.0000
     28 H          -2.0725    1.5360    4.0243 H       1  UNL1        0.0000
     29 H          -0.1867    2.7704    3.0208 H       1  UNL1        0.0000
     30 H           0.9130    4.5813    4.2810 H       1  UNL1        0.0000
     31 H           0.1349    5.1584    6.5483 H       1  UNL1        0.0000
     32 H          -3.6279    4.9469    5.9872 H       1  UNL1        0.0000
     33 H          -6.0280    5.4669    5.7945 H       1  UNL1        0.0000
     34 H          -7.5337    5.0925    7.7098 H       1  UNL1        0.0000
     35 H          -6.6319    4.2165    9.8363 H       1  UNL1        0.0000
     36 H          -4.2248    3.6921   10.0325 H       1  UNL1        0.0000
     37 H           0.5467    7.5807    8.3329 H       1  UNL1        0.0000
     38 H           1.0053    9.9629    8.7833 H       1  UNL1        0.0000
     39 H          -0.0291   11.0721   10.7272 H       1  UNL1        0.0000
     40 H          -1.5354    9.8051   12.2128 H       1  UNL1        0.0000
     41 H          -1.9934    7.4172   11.7575 H       1  UNL1        0.0000
     42 H           2.2418    6.0240   12.9135 H       1  UNL1        0.0000
     43 H           2.1284    6.1681   11.1684 H       1  UNL1        0.0000
     44 H           1.1994    7.2402   12.2028 H       1  UNL1        0.0000
     45 H          -0.5606    4.8697   14.4964 H       1  UNL1        0.0000
     46 H          -1.3173    6.2434   13.7205 H       1  UNL1        0.0000
     47 H          -1.9529    4.6210   13.4568 H       1  UNL1        0.0000
     48 H           0.8387    2.7045   13.0478 H       1  UNL1        0.0000
     49 H           0.1935    2.5331   11.4167 H       1  UNL1        0.0000
     50 H           1.8411    3.1362   11.6601 H       1  UNL1        0.0000
     51 H          -1.8117    6.3767    7.9321 H       1  UNL1        0.0000
@<TRIPOS>BOND
     1    29     8    1
     2     8     7   ar
     3     8     9   ar
     4    28     7    1
     5    30     9    1
     6     7     6   ar
     7     9    10   ar
     8    33    13    1
     9     6    27    1
    10     6     5   ar
    11    10     5   ar
    12    10    31    1
    13    32    12    1
    14     5     1    1
    15    13    12   ar
    16    13    14   ar
    17    12    11   ar
    18    34    14    1
    19    14    15   ar
    20    51     3    1
    21    11     1    1
    22    11    16   ar
    23     1     3    1
    24    37    19    1
    25     3    17    1
    26    38    20    1
    27    15    16   ar
    28    15    35    1
    29    16    36    1
    30    19    20   ar
    31    19    18   ar
    32    20    21   ar
    33    17    18    1
    34    17     4    1
    35    18    23   ar
    36    21    39    1
    37    21    22   ar
    38     4     2    1
    39    23    22   ar
    40    23    41    1
    41    43    24    1
    42    22    40    1
    43    49    26    1
    44    50    26    1
    45    26     2    1
    46    26    48    1
    47    24     2    1
    48    24    44    1
    49    24    42    1
    50     2    25    1
    51    47    25    1
    52    25    46    1
    53    25    45    1
