@<TRIPOS>MOLECULE
2,3,5,6,7,8,9,10
 61 61 0 0 0
SMALL
GASTEIGER

@<TRIPOS>ATOM
      1 SI          8.2762   16.8667   -0.2233 Si      1  UNL1        0.0000
      2 N           8.8133   16.0374   -1.6370 N.3     1  UNL1        0.0000
      3 N           8.6180   13.8561   -1.9917 N.3     1  UNL1        0.0000
      4 N           7.0850   15.3345   -3.0813 N.3     1  UNL1        0.0000
      5 O          10.4817   12.4497   -0.8913 O.3     1  UNL1        0.0000
      6 C           8.8315   15.6205    1.0863 C.3     1  UNL1        0.0000
      7 C           8.2827   14.2947    1.1174 C.2     1  UNL1        0.0000
      8 C           9.2546   13.4145    1.6335 C.2     1  UNL1        0.0000
      9 C          10.4395   14.1712    1.8833 C.3     1  UNL1        0.0000
     10 C          10.1735   15.5207    1.5628 C.3     1  UNL1        0.0000
     11 C           6.8540   13.9548    0.7821 C.3     1  UNL1        0.0000
     12 H           6.1697   14.5480    1.3919 H       1  UNL1        0.0000
     13 H           6.6461   12.9023    0.9737 H       1  UNL1        0.0000
     14 H           6.6283   14.1590   -0.2681 H       1  UNL1        0.0000
     15 C           9.1087   11.9639    2.0076 C.3     1  UNL1        0.0000
     16 H           9.2928   11.8293    3.0762 H       1  UNL1        0.0000
     17 H           9.8308   11.3509    1.4626 H       1  UNL1        0.0000
     18 H           8.1083   11.5922    1.7911 H       1  UNL1        0.0000
     19 C          11.6855   13.6232    2.5264 C.3     1  UNL1        0.0000
     20 H          11.5439   13.4947    3.6038 H       1  UNL1        0.0000
     21 H          12.5284   14.2954    2.3717 H       1  UNL1        0.0000
     22 H          11.9366   12.6478    2.1053 H       1  UNL1        0.0000
     23 C          11.1181   16.6660    1.8129 C.3     1  UNL1        0.0000
     24 H          10.5674   17.6012    1.8694 H       1  UNL1        0.0000
     25 H          11.8636   16.7444    1.0176 H       1  UNL1        0.0000
     26 H          11.6412   16.5245    2.7599 H       1  UNL1        0.0000
     27 C           9.1478   18.5669   -0.2260 C.3     1  UNL1        0.0000
     28 H           8.9759   19.0826    0.7112 H       1  UNL1        0.0000
     29 H           8.7497   19.1943   -1.0164 H       1  UNL1        0.0000
     30 H          10.2166   18.4804   -0.3775 H       1  UNL1        0.0000
     31 C           6.3973   17.2604   -0.0771 C.3     1  UNL1        0.0000
     32 H           6.1553   18.1619   -0.6304 H       1  UNL1        0.0000
     33 H           6.1107   17.4275    0.9558 H       1  UNL1        0.0000
     34 H           5.7783   16.4579   -0.4627 H       1  UNL1        0.0000
     35 C           8.1535   15.0577   -2.2637 C.3     1  UNL1        0.0000
     36 C           6.0481   14.3738   -3.3599 C.3     1  UNL1        0.0000
     37 H           6.2563   13.4413   -2.8445 H       1  UNL1        0.0000
     38 H           5.9661   14.1829   -4.4347 H       1  UNL1        0.0000
     39 H           5.0848   14.7584   -3.0062 H       1  UNL1        0.0000
     40 C           6.7911   16.6874   -3.4817 C.3     1  UNL1        0.0000
     41 H           7.6425   17.3144   -3.2302 H       1  UNL1        0.0000
     42 H           5.9028   17.0730   -2.9733 H       1  UNL1        0.0000
     43 H           6.6158   16.7142   -4.5614 H       1  UNL1        0.0000
     44 CA          8.8162   12.6059   -2.6856 C.3     1  UNL1        0.0000
     45 HA          7.8815   12.1004   -2.9969 H       1  UNL1        0.0000
     46 C           9.7075   12.7563   -3.9572 C.3     1  UNL1        0.0000
     47 C          10.1007   11.3764   -4.4995 C.3     1  UNL1        0.0000
     48 H          10.5506   11.4838   -5.4846 H       1  UNL1        0.0000
     49 H           9.2282   10.7325   -4.5926 H       1  UNL1        0.0000
     50 H          10.8253   10.8910   -3.8525 H       1  UNL1        0.0000
     51 C          10.9715   13.5579   -3.6309 C.3     1  UNL1        0.0000
     52 H          11.6028   13.6268   -4.5174 H       1  UNL1        0.0000
     53 H          11.5288   13.0656   -2.8289 H       1  UNL1        0.0000
     54 H          10.6995   14.5697   -3.3047 H       1  UNL1        0.0000
     55 C           8.9242   13.4890   -5.0536 C.3     1  UNL1        0.0000
     56 H           9.5389   13.5854   -5.9470 H       1  UNL1        0.0000
     57 H           8.6435   14.4855   -4.7257 H       1  UNL1        0.0000
     58 H           8.0250   12.9364   -5.3193 H       1  UNL1        0.0000
     59 C           9.4792   11.7551   -1.5518 C.3     1  UNL1        0.0000
     60 H1          8.6638   11.4980   -0.8421 H       1  UNL1        0.0000
     61 H2          9.8742   10.8072   -1.9517 H       1  UNL1        0.0000
@<TRIPOS>BOND
     1    56    55    1
     2    48    47    1
     3    58    55    1
     4    55    57    1
     5    55    46    1
     6    49    47    1
     7    43    40    1
     8    52    51    1
     9    47    46    1
    10    47    50    1
    11    38    36    1
    12    46    51    1
    13    46    44    1
    14    51    54    1
    15    51    53    1
    16    40    41    1
    17    40     4    1
    18    40    42    1
    19    36     4    1
    20    36    39    1
    21    36    37    1
    22     4    35    1
    23    45    44    1
    24    44     3    1
    25    44    59    1
    26    35     3    1
    27    35     2    1
    28    61    59    1
    29     2     1    1
    30    59     5    1
    31    59    60    1
    32    29    27    1
    33    32    31    1
    34    34    31    1
    35    30    27    1
    36    14    11    1
    37    27     1    1
    38    27    28    1
    39     1    31    1
    40     1     6    1
    41    31    33    1
    42    11    13    1
    43    11     7    1
    44    11    12    1
    45    25    23    1
    46     6     7    1
    47     6    10    1
    48     7     8    2
    49    17    15    1
    50    10    23    1
    51    10     9    1
    52     8     9    1
    53     8    15    1
    54    18    15    1
    55    23    24    1
    56    23    26    1
    57     9    19    1
    58    15    16    1
    59    22    19    1
    60    21    19    1
    61    19    20    1
