@<TRIPOS>MOLECULE
1,4,7,11,12
 47 49 0 0 0
SMALL
GASTEIGER

@<TRIPOS>ATOM
      1 N           3.6322    0.7341    4.8612 N.3     1  UNL1       -0.2355
      2 C           2.3232   -0.9929    3.7094 C.3     1  UNL1        0.0267
      3 H           2.3136   -0.4280    2.7664 H       1  UNL1        0.0478
      4 N           1.1467   -0.4836    4.4697 N.3     1  UNL1       -0.3039
      5 C           1.9557    2.1863    7.0989 C.ar    1  UNL1       -0.0365
      6 C           0.7414    2.8308    6.6467 C.ar    1  UNL1       -0.0397
      7 C           1.1127    3.8568    5.7331 C.3     1  UNL1       -0.0045
      8 H           0.4546    4.6245    5.3499 H       1  UNL1        0.0358
      9 C           3.6397   -0.6447    4.4355 C.3     1  UNL1        0.0409
     10 H           3.7564   -1.3205    5.3098 H       1  UNL1        0.0492
     11 C           3.0508    2.8384    6.4609 C.3     1  UNL1        0.0108
     12 C           2.5222    3.8615    5.6464 C.3     1  UNL1       -0.0189
     13 H           3.1130    4.6171    5.1396 H       1  UNL1        0.0319
     14 C           1.8807    1.2051    8.1017 C.ar    1  UNL1       -0.0577
     15 H           2.7827    0.7527    8.4915 H       1  UNL1        0.0621
     16 C           4.4807    2.3851    6.4978 C.3     1  UNL1       -0.0281
     17 H           4.8860    2.4124    7.5141 H       1  UNL1        0.0287
     18 H           5.0841    3.0453    5.8690 H       1  UNL1        0.0287
     19 C          -0.4906    2.4628    7.2187 C.ar    1  UNL1       -0.0580
     20 H          -1.3997    2.9720    6.9250 H       1  UNL1        0.0620
     21 C           0.6569    0.8608    8.6218 C.ar    1  UNL1       -0.0615
     22 H           0.5934    0.1142    9.4008 H       1  UNL1        0.0618
     23 C           4.5553    0.9428    5.9627 C.3     1  UNL1        0.0152
     24 H           5.5919    0.7287    5.6461 H       1  UNL1        0.0441
     25 H           4.3272    0.2404    6.7895 H       1  UNL1        0.0441
     26 C           4.8101   -0.9554    3.4742 C.3     1  UNL1       -0.0345
     27 H           4.7134   -0.3148    2.5962 H       1  UNL1        0.0281
     28 H           5.7514   -0.7079    3.9666 H       1  UNL1        0.0281
     29 C           0.9533   -1.1844    5.7450 C.3     1  UNL1       -0.0127
     30 H           0.1426   -0.7087    6.2992 H       1  UNL1        0.0391
     31 H           1.8530   -1.1213    6.3529 H       1  UNL1        0.0391
     32 H           0.6942   -2.2397    5.5933 H       1  UNL1        0.0391
     33 C          -0.0724   -0.6576    3.6716 C.3     1  UNL1       -0.0127
     34 H          -0.2673   -1.7144    3.4496 H       1  UNL1        0.0391
     35 H           0.0179   -0.1018    2.7385 H       1  UNL1        0.0391
     36 H          -0.9286   -0.2804    4.2294 H       1  UNL1        0.0391
     37 C           4.8120   -2.4248    3.0711 C.3     1  UNL1       -0.0515
     38 H           5.6245   -2.6151    2.3672 H       1  UNL1        0.0266
     39 H           4.9861   -3.0438    3.9550 H       1  UNL1        0.0266
     40 C          -0.5217    1.4846    8.1818 C.ar    1  UNL1       -0.0615
     41 H          -1.4625    1.2026    8.6334 H       1  UNL1        0.0618
     42 C           3.4794   -2.8111    2.4400 C.3     1  UNL1       -0.0515
     43 H           3.4758   -3.8767    2.2007 H       1  UNL1        0.0266
     44 H           3.3433   -2.2588    1.5081 H       1  UNL1        0.0266
     45 C           2.3230   -2.4945    3.3866 C.3     1  UNL1       -0.0359
     46 H           2.4438   -3.0778    4.3020 H       1  UNL1        0.0281
     47 H           1.3899   -2.7952    2.9087 H       1  UNL1        0.0281
@<TRIPOS>BOND
     1    44    42    1
     2    43    42    1
     3    38    37    1
     4    42    37    1
     5    42    45    1
     6    27    26    1
     7    35    33    1
     8     3     2    1
     9    47    45    1
    10    37    26    1
    11    37    39    1
    12    45     2    1
    13    45    46    1
    14    34    33    1
    15    26    28    1
    16    26     9    1
    17    33    36    1
    18    33     4    1
    19     2     9    1
    20     2     4    1
    21     9     1    1
    22     9    10    1
    23     4    29    1
    24     1    23    1
    25    13    12    1
    26     8     7    1
    27    32    29    1
    28    24    23    1
    29    12     7    1
    30    12    11    1
    31     7     6    1
    32    29    30    1
    33    29    31    1
    34    18    16    1
    35    23    16    1
    36    23    25    1
    37    11    16    1
    38    11     5    1
    39    16    17    1
    40     6     5   ar
    41     6    19   ar
    42    20    19    1
    43     5    14   ar
    44    19    40   ar
    45    14    15    1
    46    14    21   ar
    47    40    21   ar
    48    40    41    1
    49    21    22    1
