@<TRIPOS>MOLECULE
3,4,5,22,50
 53 52 0 0 0
SMALL
GASTEIGER

@<TRIPOS>ATOM
      1 SI          7.0083    5.7228    1.2471 Si      1  UNL1        0.0000
      2 SI          3.5415    7.0849    4.2809 Si      1  UNL1        0.0000
      3 N           6.5567    4.0508    1.8221 N.3     1  UNL1        0.0000
      4 N           3.8938    5.2958    4.2085 N.3     1  UNL1        0.0000
      5 N           6.1929    6.5300    2.5147 N.pl3   1  UNL1        0.0000
      6 C           5.5706    3.3613    0.9962 C.3     1  UNL1        0.0000
      7 H           6.0352    2.9723    0.0796 H       1  UNL1        0.0000
      8 H           4.7663    4.0273    0.6964 H       1  UNL1        0.0000
      9 H           5.1562    2.5058    1.5393 H       1  UNL1        0.0000
     10 C           7.6619    3.1035    1.9972 C.3     1  UNL1        0.0000
     11 H           7.2966    2.2056    2.5057 H       1  UNL1        0.0000
     12 H           8.4573    3.5366    2.5986 H       1  UNL1        0.0000
     13 H           8.0777    2.7971    1.0280 H       1  UNL1        0.0000
     14 C           6.1646    6.0582   -0.4470 C.3     1  UNL1        0.0000
     15 H           5.1084    6.2824   -0.3364 H       1  UNL1        0.0000
     16 H           6.2586    5.2113   -1.1175 H       1  UNL1        0.0000
     17 H           6.6178    6.9089   -0.9428 H       1  UNL1        0.0000
     18 C           8.8962    5.6949    0.8803 C.3     1  UNL1        0.0000
     19 H           9.2498    6.6428    0.4857 H       1  UNL1        0.0000
     20 H           9.1302    4.9355    0.1379 H       1  UNL1        0.0000
     21 H           9.4788    5.4727    1.7702 H       1  UNL1        0.0000
     22 C           6.0824    7.8013    3.0227 C.2     1  UNL1        0.0000
     23 C           7.2071    8.8213    2.8032 C.3     1  UNL1        0.0000
     24 C           6.9440   10.1682    3.4878 C.3     1  UNL1        0.0000
     25 H           6.8534   10.0501    4.5641 H       1  UNL1        0.0000
     26 H           6.0481   10.6458    3.0985 H       1  UNL1        0.0000
     27 H           7.7866   10.8293    3.2937 H       1  UNL1        0.0000
     28 C           7.3988    9.1010    1.3105 C.3     1  UNL1        0.0000
     29 H           8.2336    9.7834    1.1651 H       1  UNL1        0.0000
     30 H           6.5005    9.5583    0.9006 H       1  UNL1        0.0000
     31 H           7.5995    8.1908    0.7603 H       1  UNL1        0.0000
     32 C           8.4761    8.2310    3.4298 C.3     1  UNL1        0.0000
     33 H           8.2888    7.9881    4.4778 H       1  UNL1        0.0000
     34 H           9.2907    8.9510    3.3815 H       1  UNL1        0.0000
     35 H           8.7859    7.3248    2.9214 H       1  UNL1        0.0000
     36 C           5.0033    8.1249    3.7747 C.2     1  UNL1        0.0000
     37 H           4.9552    9.1229    4.1743 H       1  UNL1        0.0000
     38 C           2.0397    7.3953    3.1180 C.3     1  UNL1        0.0000
     39 H           2.2722    7.2267    2.0715 H       1  UNL1        0.0000
     40 H           1.7351    8.4314    3.2120 H       1  UNL1        0.0000
     41 H           1.1774    6.7873    3.3746 H       1  UNL1        0.0000
     42 C           2.9381    7.5729    6.0263 C.3     1  UNL1        0.0000
     43 H           2.0300    7.0554    6.3182 H       1  UNL1        0.0000
     44 H           2.7196    8.6352    6.0370 H       1  UNL1        0.0000
     45 H           3.6971    7.3879    6.7783 H       1  UNL1        0.0000
     46 C           3.3469    4.5744    5.3660 C.3     1  UNL1        0.0000
     47 H           2.2565    4.6828    5.4172 H       1  UNL1        0.0000
     48 H           3.7895    4.9623    6.2837 H       1  UNL1        0.0000
     49 H           3.5808    3.5086    5.2923 H       1  UNL1        0.0000
     50 C           3.3896    4.6601    2.9947 C.3     1  UNL1        0.0000
     51 H           3.7399    3.6218    2.9492 H       1  UNL1        0.0000
     52 H           3.7377    5.2185    2.1231 H       1  UNL1        0.0000
     53 H           2.2910    4.6429    2.9798 H       1  UNL1        0.0000
@<TRIPOS>BOND
     1    16    14    1
     2    17    14    1
     3    14    15    1
     4    14     1    1
     5     7     6    1
     6    20    18    1
     7    19    18    1
     8     8     6    1
     9    31    28    1
    10    18     1    1
    11    18    21    1
    12    30    28    1
    13     6     9    1
    14     6     3    1
    15    13    10    1
    16    29    28    1
    17     1     3    1
    18     1     5    1
    19    28    23    1
    20     3    10    1
    21    10    11    1
    22    10    12    1
    23    39    38    1
    24    52    50    1
    25     5    22    1
    26    23    22    1
    27    23    32    1
    28    23    24    1
    29    35    32    1
    30    51    50    1
    31    53    50    1
    32    50     4    1
    33    22    36    2
    34    26    24    1
    35    38    40    1
    36    38    41    1
    37    38     2    1
    38    27    24    1
    39    34    32    1
    40    32    33    1
    41    24    25    1
    42    36    37    1
    43    36     2    1
    44     4     2    1
    45     4    46    1
    46     2    42    1
    47    49    46    1
    48    46    47    1
    49    46    48    1
    50    42    44    1
    51    42    43    1
    52    42    45    1
