@<TRIPOS>MOLECULE
1
 14 14 0 0 0
SMALL
GASTEIGER

@<TRIPOS>ATOM
      1 SI          2.7980    9.4778    9.0844 Si      1  UNL1        0.0000
      2 H           1.3639    9.8408    9.1494 H       1  UNL1        0.0000
      3 H           2.7821    8.0695    9.5743 H       1  UNL1        0.0000
      4 C           3.5609   10.4278   10.5393 C.ar    1  UNL1        0.0000
      5 C           3.0774   11.6838   10.8828 C.ar    1  UNL1        0.0000
      6 H           2.2608   12.0982   10.3111 H       1  UNL1        0.0000
      7 C           3.6127   12.3978   11.9393 C.ar    1  UNL1        0.0000
      8 H           3.2208   13.3747   12.1874 H       1  UNL1        0.0000
      9 C           4.6496   11.8613   12.6841 C.ar    1  UNL1        0.0000
     10 H           5.0725   12.4156   13.5101 H       1  UNL1        0.0000
     11 C           5.1349   10.6042   12.3677 C.ar    1  UNL1        0.0000
     12 H           5.9368   10.1719   12.9509 H       1  UNL1        0.0000
     13 C           4.5916    9.9009   11.3072 C.ar    1  UNL1        0.0000
     14 H           4.9729    8.9148   11.0795 H       1  UNL1        0.0000
@<TRIPOS>BOND
     1     1     2    1
     2     1     3    1
     3     1     4    1
     4     6     5    1
     5     4     5   ar
     6     4    13   ar
     7     5     7   ar
     8    14    13    1
     9    13    11   ar
    10     7     8    1
    11     7     9   ar
    12    11     9   ar
    13    11    12    1
    14     9    10    1
