@<TRIPOS>MOLECULE
1
 7 6 0 0 0
SMALL
GASTEIGER

@<TRIPOS>ATOM
      1 SI          3.1020    8.3505    2.4497 Si      1  UNL1        0.0000
      2 CL          3.9519   10.1619    3.1098 Cl      1  UNL1        0.0000
      3 CL          1.8604    7.8154    4.0468 Cl      1  UNL1        0.0000
      4 C           1.7769    9.0695    1.2570 C.3     1  UNL1        0.0000
      5 H           2.2367    9.6130    0.4416 H       1  UNL1        0.0000
      6 H           1.1376    8.3030    0.8389 H       1  UNL1        0.0000
      7 H           1.1558    9.7630    1.8169 H       1  UNL1        0.0000
@<TRIPOS>BOND
     1     5     4    1
     2     6     4    1
     3     4     7    1
     4     4     1    1
     5     1     2    1
     6     1     3    1
