@<TRIPOS>MOLECULE
1
 4 3 0 0 0
SMALL
GASTEIGER

@<TRIPOS>ATOM
      1 SI          2.7123    2.9500    5.3118 Si      1  UNL1        0.0000
      2 CL          1.4017    2.8960    6.9230 Cl      1  UNL1        0.0000
      3 CL          3.6119    4.8375    5.5528 Cl      1  UNL1        0.0000
      4 CL          4.2819    1.7432    5.9740 Cl      1  UNL1        0.0000
@<TRIPOS>BOND
     1     1     3    1
     2     1     4    1
     3     1     2    1
