@<TRIPOS>MOLECULE
1
 4 3 0 0 0
SMALL
GASTEIGER

@<TRIPOS>ATOM
      1 SI         -0.2933    2.3114    2.8711 Si      1  UNL1        0.0000
      2 CL         -1.1675    3.8460    1.7284 Cl      1  UNL1        0.0000
      3 CL         -1.5618    2.2301    4.5134 Cl      1  UNL1        0.0000
      4 CL         -0.9082    0.6645    1.7486 Cl      1  UNL1        0.0000
@<TRIPOS>BOND
     1     2     1    1
     2     4     1    1
     3     1     3    1
