@<TRIPOS>MOLECULE
1
 33 34 0 0 0
SMALL
GASTEIGER

@<TRIPOS>ATOM
      1 SI          4.3320    1.4881    5.0845 Si      1  UNL1        0.0000
      2 N           5.9602    1.0237    5.5523 N.pl3   1  UNL1        0.0000
      3 N           5.0157    2.3566    3.7128 N.pl3   1  UNL1        0.0000
      4 C           6.9062    1.5684    4.7070 C.2     1  UNL1        0.0000
      5 C           6.3928    2.2972    3.7120 C.2     1  UNL1        0.0000
      6 C           6.4247    0.1531    6.6239 C.3     1  UNL1        0.0000
      7 C           4.3643    3.1082    2.6500 C.3     1  UNL1        0.0000
      8 C           7.3544    0.9289    7.5679 C.3     1  UNL1        0.0000
      9 C           7.1660   -1.0501    6.0216 C.3     1  UNL1        0.0000
     10 C           5.2454   -0.3701    7.4364 C.3     1  UNL1        0.0000
     11 C           4.6375    4.6089    2.8285 C.3     1  UNL1        0.0000
     12 C           4.8893    2.6490    1.2779 C.3     1  UNL1        0.0000
     13 C           2.8563    2.8672    2.6671 C.3     1  UNL1        0.0000
     14 H           7.9549    1.4033    4.8632 H       1  UNL1        0.0000
     15 H           6.9707    2.8029    2.9628 H       1  UNL1        0.0000
     16 H           8.2249    1.3167    7.0464 H       1  UNL1        0.0000
     17 H           6.8153    1.7645    8.0074 H       1  UNL1        0.0000
     18 H           7.6978    0.2792    8.3688 H       1  UNL1        0.0000
     19 H           8.0551   -0.7418    5.4788 H       1  UNL1        0.0000
     20 H           7.4662   -1.7366    6.8091 H       1  UNL1        0.0000
     21 H           6.5094   -1.5769    5.3328 H       1  UNL1        0.0000
     22 H           4.6753    0.4501    7.8632 H       1  UNL1        0.0000
     23 H           4.5744   -0.9447    6.8059 H       1  UNL1        0.0000
     24 H           5.6052   -1.0072    8.2407 H       1  UNL1        0.0000
     25 H           5.7004    4.7943    2.9621 H       1  UNL1        0.0000
     26 H           4.2958    5.1585    1.9547 H       1  UNL1        0.0000
     27 H           4.1118    4.9852    3.7016 H       1  UNL1        0.0000
     28 H           5.8957    3.0119    1.0897 H       1  UNL1        0.0000
     29 H           4.2420    3.0290    0.4913 H       1  UNL1        0.0000
     30 H           4.8988    1.5624    1.2291 H       1  UNL1        0.0000
     31 H           2.3527    3.6047    2.0457 H       1  UNL1        0.0000
     32 H           2.4561    2.9444    3.6849 H       1  UNL1        0.0000
     33 H           2.6304    1.8789    2.2774 H       1  UNL1        0.0000
@<TRIPOS>BOND
     1    29    12    1
     2    28    12    1
     3    30    12    1
     4    12     7    1
     5    26    11    1
     6    31    13    1
     7    33    13    1
     8     7    13    1
     9     7    11    1
    10     7     3    1
    11    13    32    1
    12    11    25    1
    13    11    27    1
    14    15     5    1
    15     5     3    1
    16     5     4    2
    17     3     1    1
    18     4    14    1
    19     4     2    1
    20     1     2    1
    21    21     9    1
    22    19     9    1
    23     2     6    1
    24     9     6    1
    25     9    20    1
    26     6    10    1
    27     6     8    1
    28    23    10    1
    29    16     8    1
    30    10    22    1
    31    10    24    1
    32     8    17    1
    33     8    18    1
    34     1     4    0
