@<TRIPOS>MOLECULE
1
 13 12 0 0 0
SMALL
GASTEIGER

@<TRIPOS>ATOM
      1 SI          1.0573    4.3473    3.3633 Si      1  UNL1        0.0000
      2 C           1.1509    5.5776    4.8497 C.3     1  UNL1        0.0000
      3 C          -0.2327    5.1684    2.1891 C.3     1  UNL1        0.0000
      4 C           2.7152    4.6048    2.4100 C.3     1  UNL1        0.0000
      5 H           1.2806    5.0805    5.8013 H       1  UNL1        0.0000
      6 H           1.9835    6.2605    4.7233 H       1  UNL1        0.0000
      7 H           0.2489    6.1745    4.9105 H       1  UNL1        0.0000
      8 H           0.2115    5.9826    1.6271 H       1  UNL1        0.0000
      9 H          -0.6298    4.4539    1.4773 H       1  UNL1        0.0000
     10 H          -1.0695    5.5815    2.7410 H       1  UNL1        0.0000
     11 H           3.5868    4.3743    3.0120 H       1  UNL1        0.0000
     12 H           2.7474    3.9657    1.5348 H       1  UNL1        0.0000
     13 H           2.8189    5.6321    2.0712 H       1  UNL1        0.0000
@<TRIPOS>BOND
     1     9     3    1
     2    12     4    1
     3     8     3    1
     4    13     4    1
     5     3    10    1
     6     3     1    1
     7     4    11    1
     8     4     1    1
     9     1     2    1
    10     6     2    1
    11     2     7    1
    12     2     5    1
