@<TRIPOS>MOLECULE
1
 54 55 0 0 0
SMALL
GASTEIGER

@<TRIPOS>ATOM
      1 SI          2.2216   -1.1797   -1.2078 Si      1  UNL1        0.0000
      2 SI          1.7763    0.1053   -3.1857 Si      1  UNL1        0.0000
      3 C           4.1217   -0.8894   -0.9615 C.3     1  UNL1        0.0000
      4 C           1.0894   -0.3174    0.1001 C.ar    1  UNL1        0.0000
      5 C           1.5196    0.6442    1.0254 C.ar    1  UNL1        0.0000
      6 C           0.6240    1.2040    1.9277 C.ar    1  UNL1        0.0000
      7 C          -0.7167    0.8578    1.9414 C.ar    1  UNL1        0.0000
      8 C          -1.1509   -0.0610    1.0001 C.ar    1  UNL1        0.0000
      9 C          -0.2760   -0.6395    0.0920 C.ar    1  UNL1        0.0000
     10 C           2.9339    1.1413    1.0761 C.3     1  UNL1        0.0000
     11 C          -1.6630    1.4509    2.9409 C.3     1  UNL1        0.0000
     12 C          -0.8395   -1.6073   -0.8998 C.3     1  UNL1        0.0000
     13 C           0.0288    0.8991   -3.3865 C.3     1  UNL1        0.0000
     14 C           1.7237   -1.0890   -4.6854 C.3     1  UNL1        0.0000
     15 C           3.0999    1.4957   -3.2678 C.ar    1  UNL1        0.0000
     16 C           4.3237    1.3143   -3.9307 C.ar    1  UNL1        0.0000
     17 C           5.2817    2.3161   -3.9332 C.ar    1  UNL1        0.0000
     18 C           5.0831    3.5181   -3.2718 C.ar    1  UNL1        0.0000
     19 C           3.8971    3.6798   -2.5791 C.ar    1  UNL1        0.0000
     20 C           2.9191    2.6933   -2.5611 C.ar    1  UNL1        0.0000
     21 C           4.6561    0.0417   -4.6491 C.3     1  UNL1        0.0000
     22 C           6.1362    4.5846   -3.2923 C.3     1  UNL1        0.0000
     23 C           1.6845    2.9823   -1.7583 C.3     1  UNL1        0.0000
     24 H           4.4630   -1.1219    0.0382 H       1  UNL1        0.0000
     25 H           4.6531   -1.5534   -1.6347 H       1  UNL1        0.0000
     26 H           4.4313    0.1221   -1.1966 H       1  UNL1        0.0000
     27 H           0.9816    1.9387    2.6368 H       1  UNL1        0.0000
     28 H          -2.1986   -0.3304    0.9727 H       1  UNL1        0.0000
     29 H           3.0072    1.9925    1.7500 H       1  UNL1        0.0000
     30 H           3.6088    0.3704    1.4363 H       1  UNL1        0.0000
     31 H           3.2700    1.4528    0.0925 H       1  UNL1        0.0000
     32 H          -1.3237    2.4334    3.2612 H       1  UNL1        0.0000
     33 H          -2.6627    1.5416    2.5211 H       1  UNL1        0.0000
     34 H          -1.7253    0.8112    3.8226 H       1  UNL1        0.0000
     35 H          -1.9158   -1.7003   -0.7725 H       1  UNL1        0.0000
     36 H          -0.6320   -1.2813   -1.9146 H       1  UNL1        0.0000
     37 H          -0.3810   -2.5866   -0.7811 H       1  UNL1        0.0000
     38 H          -0.4171    1.1790   -2.4390 H       1  UNL1        0.0000
     39 H           0.0590    1.7866   -4.0117 H       1  UNL1        0.0000
     40 H          -0.6473    0.1973   -3.8662 H       1  UNL1        0.0000
     41 H           0.7972   -1.6510   -4.6346 H       1  UNL1        0.0000
     42 H           1.7352   -0.5699   -5.6388 H       1  UNL1        0.0000
     43 H           2.5298   -1.8108   -4.6825 H       1  UNL1        0.0000
     44 H           6.2134    2.1566   -4.4596 H       1  UNL1        0.0000
     45 H           3.7268    4.5975   -2.0318 H       1  UNL1        0.0000
     46 H           4.4790   -0.8195   -4.0114 H       1  UNL1        0.0000
     47 H           5.7015    0.0403   -4.9504 H       1  UNL1        0.0000
     48 H           4.0466   -0.0656   -5.5425 H       1  UNL1        0.0000
     49 H           7.0361    4.2378   -2.7843 H       1  UNL1        0.0000
     50 H           6.4080    4.8314   -4.3178 H       1  UNL1        0.0000
     51 H           5.7862    5.4872   -2.7970 H       1  UNL1        0.0000
     52 H           1.8948    3.7449   -1.0110 H       1  UNL1        0.0000
     53 H           0.8946    3.3610   -2.4042 H       1  UNL1        0.0000
     54 H           1.3149    2.0968   -1.2525 H       1  UNL1        0.0000
@<TRIPOS>BOND
     1    42    14    1
     2    48    21    1
     3    47    21    1
     4    14    43    1
     5    14    41    1
     6    14     2    1
     7    21    46    1
     8    21    16    1
     9    44    17    1
    10    50    22    1
    11    39    13    1
    12    17    16   ar
    13    17    18   ar
    14    16    15   ar
    15    40    13    1
    16    13     2    1
    17    13    38    1
    18    22    18    1
    19    22    51    1
    20    22    49    1
    21    18    19   ar
    22    15     2    1
    23    15    20   ar
    24     2     1    1
    25    19    20   ar
    26    19    45    1
    27    20    23    1
    28    53    23    1
    29    36    12    1
    30    23    54    1
    31    23    52    1
    32    25     3    1
    33     1     3    1
    34     1     4    1
    35    26     3    1
    36     3    24    1
    37    12    37    1
    38    12    35    1
    39    12     9    1
    40     9     4   ar
    41     9     8   ar
    42    31    10    1
    43     4     5   ar
    44    28     8    1
    45     8     7   ar
    46     5    10    1
    47     5     6   ar
    48    10    30    1
    49    10    29    1
    50     6     7   ar
    51     6    27    1
    52     7    11    1
    53    33    11    1
    54    11    32    1
    55    11    34    1
