@<TRIPOS>MOLECULE
1
 41 42 0 0 0
SMALL
GASTEIGER

@<TRIPOS>ATOM
      1 SI         -1.4897    2.2915    3.9790 Si      1  UNL1        0.0000
      2 C          -2.6759    2.1482    5.4950 C.ar    1  UNL1        0.0000
      3 C          -3.5223    1.0466    5.6882 C.ar    1  UNL1        0.0000
      4 C          -4.2764    0.9435    6.8466 C.ar    1  UNL1        0.0000
      5 C          -4.2216    1.9117    7.8390 C.ar    1  UNL1        0.0000
      6 C          -3.3979    3.0077    7.6370 C.ar    1  UNL1        0.0000
      7 C          -2.6324    3.1357    6.4866 C.ar    1  UNL1        0.0000
      8 C          -3.6496   -0.0231    4.6466 C.3     1  UNL1        0.0000
      9 C          -5.0521    1.7863    9.0793 C.3     1  UNL1        0.0000
     10 C          -1.7961    4.3631    6.3079 C.3     1  UNL1        0.0000
     11 C          -2.6608    2.1243    2.4705 C.ar    1  UNL1        0.0000
     12 C          -2.4890    1.0962    1.5409 C.ar    1  UNL1        0.0000
     13 C          -3.2573    1.0693    0.3835 C.ar    1  UNL1        0.0000
     14 C          -4.2016    2.0455    0.1174 C.ar    1  UNL1        0.0000
     15 C          -4.3781    3.0582    1.0515 C.ar    1  UNL1        0.0000
     16 C          -3.6253    3.1081    2.2114 C.ar    1  UNL1        0.0000
     17 C          -1.5270   -0.0320    1.7614 C.3     1  UNL1        0.0000
     18 C          -5.0042    2.0276   -1.1476 C.3     1  UNL1        0.0000
     19 C          -3.8621    4.2140    3.1938 C.3     1  UNL1        0.0000
     20 H          -4.9219    0.0864    6.9832 H       1  UNL1        0.0000
     21 H          -3.3479    3.7789    8.3936 H       1  UNL1        0.0000
     22 H          -4.1873    0.3619    3.7813 H       1  UNL1        0.0000
     23 H          -2.6749   -0.3599    4.3077 H       1  UNL1        0.0000
     24 H          -4.1978   -0.8769    5.0386 H       1  UNL1        0.0000
     25 H          -4.6003    2.3291    9.9065 H       1  UNL1        0.0000
     26 H          -6.0455    2.2016    8.9050 H       1  UNL1        0.0000
     27 H          -5.1707    0.7427    9.3629 H       1  UNL1        0.0000
     28 H          -1.5829    4.8280    7.2676 H       1  UNL1        0.0000
     29 H          -0.8661    4.1277    5.7995 H       1  UNL1        0.0000
     30 H          -2.3310    5.0908    5.6983 H       1  UNL1        0.0000
     31 H          -3.1099    0.2654   -0.3248 H       1  UNL1        0.0000
     32 H          -5.1179    3.8244    0.8634 H       1  UNL1        0.0000
     33 H          -2.0744   -0.9489    1.9840 H       1  UNL1        0.0000
     34 H          -0.9442   -0.2071    0.8596 H       1  UNL1        0.0000
     35 H          -0.8424    0.1833    2.5770 H       1  UNL1        0.0000
     36 H          -4.5779    2.7276   -1.8669 H       1  UNL1        0.0000
     37 H          -5.0030    1.0372   -1.5965 H       1  UNL1        0.0000
     38 H          -6.0325    2.3292   -0.9578 H       1  UNL1        0.0000
     39 H          -2.9425    4.7676    3.3698 H       1  UNL1        0.0000
     40 H          -4.6162    4.9043    2.8227 H       1  UNL1        0.0000
     41 H          -4.2013    3.8108    4.1465 H       1  UNL1        0.0000
@<TRIPOS>BOND
     1    36    18    1
     2    37    18    1
     3    18    38    1
     4    18    14    1
     5    31    13    1
     6    14    13   ar
     7    14    15   ar
     8    13    12   ar
     9    34    17    1
    10    32    15    1
    11    15    16   ar
    12    12    17    1
    13    12    11   ar
    14    17    33    1
    15    17    35    1
    16    16    11   ar
    17    16    19    1
    18    11     1    1
    19    40    19    1
    20    19    39    1
    21    19    41    1
    22    22     8    1
    23     1     2    1
    24    23     8    1
    25     8    24    1
    26     8     3    1
    27     2     3   ar
    28     2     7   ar
    29     3     4   ar
    30    30    10    1
    31    29    10    1
    32    10     7    1
    33    10    28    1
    34     7     6   ar
    35     4    20    1
    36     4     5   ar
    37     6     5   ar
    38     6    21    1
    39     5     9    1
    40    26     9    1
    41     9    27    1
    42     9    25    1
