@<TRIPOS>MOLECULE
1
 14 13 0 0 0
SMALL
GASTEIGER

@<TRIPOS>ATOM
      1 SI          4.2187    1.8126    4.8233 Si      1  UNL1        0.0000
      2 O           4.3976    3.2160    5.6877 O.3     1  UNL1        0.0000
      3 C           5.1292    0.5193    5.8977 C.3     1  UNL1        0.0000
      4 C           5.3168    2.0603    3.2576 C.3     1  UNL1        0.0000
      5 C           4.2452    4.4816    5.1246 C.3     1  UNL1        0.0000
      6 H           4.9860    0.6968    6.9539 H       1  UNL1        0.0000
      7 H           4.7450   -0.4672    5.6612 H       1  UNL1        0.0000
      8 H           6.1945    0.5220    5.7003 H       1  UNL1        0.0000
      9 H           5.7310    1.1306    2.8887 H       1  UNL1        0.0000
     10 H           6.1482    2.7145    3.5039 H       1  UNL1        0.0000
     11 H           4.7645    2.5190    2.4450 H       1  UNL1        0.0000
     12 H           5.0583    4.6928    4.4271 H       1  UNL1        0.0000
     13 H           4.2647    5.2209    5.9273 H       1  UNL1        0.0000
     14 H           3.3005    4.5555    4.5836 H       1  UNL1        0.0000
@<TRIPOS>BOND
     1    11     4    1
     2     9     4    1
     3     4    10    1
     4     4     1    1
     5    12     5    1
     6    14     5    1
     7     1     2    1
     8     1     3    1
     9     5     2    1
    10     5    13    1
    11     7     3    1
    12     8     3    1
    13     3     6    1
