@<TRIPOS>MOLECULE
1
 45 47 0 0 0
SMALL
GASTEIGER

@<TRIPOS>ATOM
      1 SI          5.6245    3.9389    2.3732 Si      1  UNL1        0.0000
      2 N           4.8412    3.5952    3.8879 N.pl3   1  UNL1        0.0000
      3 N           6.8571    4.8163    3.2321 N.pl3   1  UNL1        0.0000
      4 C           5.4190    4.2544    4.9587 C.ar    1  UNL1        0.0000
      5 C           6.5815    4.9577    4.5808 C.ar    1  UNL1        0.0000
      6 C           7.2656    5.7160    5.5186 C.ar    1  UNL1        0.0000
      7 H           8.1460    6.2753    5.2473 H       1  UNL1        0.0000
      8 C           6.8035    5.7686    6.8221 C.ar    1  UNL1        0.0000
      9 H           7.3371    6.3599    7.5507 H       1  UNL1        0.0000
     10 C           5.6615    5.0793    7.1927 C.ar    1  UNL1        0.0000
     11 H           5.3046    5.1337    8.2100 H       1  UNL1        0.0000
     12 C           4.9629    4.3250    6.2661 C.ar    1  UNL1        0.0000
     13 H           4.0661    3.8112    6.5714 H       1  UNL1        0.0000
     14 C           3.6945    2.7392    4.0548 C.3     1  UNL1        0.0000
     15 H           3.1194    2.7759    3.1277 H       1  UNL1        0.0000
     16 H           3.0556    3.1340    4.8492 H       1  UNL1        0.0000
     17 C           4.0145    1.2553    4.3606 C.3     1  UNL1        0.0000
     18 C           2.6886    0.4900    4.3265 C.3     1  UNL1        0.0000
     19 H           1.9853    0.9026    5.0469 H       1  UNL1        0.0000
     20 H           2.8505   -0.5575    4.5689 H       1  UNL1        0.0000
     21 H           2.2399    0.5478    3.3377 H       1  UNL1        0.0000
     22 C           4.6569    1.0982    5.7396 C.3     1  UNL1        0.0000
     23 H           3.9770    1.4200    6.5248 H       1  UNL1        0.0000
     24 H           5.5708    1.6824    5.8110 H       1  UNL1        0.0000
     25 H           4.9043    0.0537    5.9170 H       1  UNL1        0.0000
     26 C           4.9561    0.6714    3.3080 C.3     1  UNL1        0.0000
     27 H           5.9294    1.1556    3.3454 H       1  UNL1        0.0000
     28 H           4.5466    0.7914    2.3069 H       1  UNL1        0.0000
     29 H           5.1020   -0.3911    3.4893 H       1  UNL1        0.0000
     30 C           8.0431    5.3788    2.6381 C.3     1  UNL1        0.0000
     31 H           8.2970    6.3143    3.1435 H       1  UNL1        0.0000
     32 H           7.8062    5.6244    1.6012 H       1  UNL1        0.0000
     33 C           9.2869    4.4563    2.6386 C.3     1  UNL1        0.0000
     34 C           8.9650    3.1050    2.0017 C.3     1  UNL1        0.0000
     35 H           9.8689    2.5041    1.9300 H       1  UNL1        0.0000
     36 H           8.5614    3.2311    0.9989 H       1  UNL1        0.0000
     37 H           8.2423    2.5549    2.6003 H       1  UNL1        0.0000
     38 C          10.3692    5.1554    1.8111 C.3     1  UNL1        0.0000
     39 H          11.2818    4.5642    1.8058 H       1  UNL1        0.0000
     40 H          10.5994    6.1352    2.2245 H       1  UNL1        0.0000
     41 H          10.0391    5.2858    0.7833 H       1  UNL1        0.0000
     42 C           9.8046    4.2222    4.0584 C.3     1  UNL1        0.0000
     43 H          10.6560    3.5452    4.0361 H       1  UNL1        0.0000
     44 H           9.0337    3.7810    4.6851 H       1  UNL1        0.0000
     45 H          10.1297    5.1552    4.5129 H       1  UNL1        0.0000
@<TRIPOS>BOND
     1    41    38    1
     2    36    34    1
     3    32    30    1
     4    39    38    1
     5    38    40    1
     6    38    33    1
     7    35    34    1
     8    34    37    1
     9    34    33    1
    10    28    26    1
    11     1     3    1
    12     1     2    1
    13    30    33    1
    14    30    31    1
    15    30     3    1
    16    33    42    1
    17    15    14    1
    18     3     5    1
    19    26    27    1
    20    26    29    1
    21    26    17    1
    22    21    18    1
    23     2    14    1
    24     2     4    1
    25    43    42    1
    26    14    17    1
    27    14    16    1
    28    42    45    1
    29    42    44    1
    30    18    17    1
    31    18    20    1
    32    18    19    1
    33    17    22    1
    34     5     4   ar
    35     5     6   ar
    36     4    12   ar
    37     7     6    1
    38     6     8   ar
    39    22    24    1
    40    22    25    1
    41    22    23    1
    42    12    13    1
    43    12    10   ar
    44     8    10   ar
    45     8     9    1
    46    10    11    1
    47     1     4    0
