@<TRIPOS>MOLECULE
1
 45 47 0 0 0
SMALL
GASTEIGER

@<TRIPOS>ATOM
      1 SI          4.5696    3.1231   -2.3736 Si      1  UNL1        0.0000
      2 N           5.3529    3.4669   -3.8884 N.pl3   1  UNL1        0.0000
      3 C           4.7745    2.8087   -4.9594 C.ar    1  UNL1        0.0000
      4 C           3.6120    2.1055   -4.5817 C.ar    1  UNL1        0.0000
      5 N           3.3369    2.2460   -3.2327 N.pl3   1  UNL1        0.0000
      6 C           2.1517    1.6822   -2.6386 C.3     1  UNL1        0.0000
      7 H           1.8983    0.7469   -3.1446 H       1  UNL1        0.0000
      8 H           2.3894    1.4360   -1.6020 H       1  UNL1        0.0000
      9 C           0.9071    2.6037   -2.6376 C.3     1  UNL1        0.0000
     10 C           1.2286    3.9550   -2.0002 C.3     1  UNL1        0.0000
     11 H           0.3244    4.5553   -1.9277 H       1  UNL1        0.0000
     12 H           1.6328    3.8286   -0.9977 H       1  UNL1        0.0000
     13 H           1.9507    4.5057   -2.5990 H       1  UNL1        0.0000
     14 C          -0.1737    1.9033   -1.8094 C.3     1  UNL1        0.0000
     15 H          -1.0867    2.4937   -1.8028 H       1  UNL1        0.0000
     16 H          -0.4035    0.9235   -2.2229 H       1  UNL1        0.0000
     17 H           0.1575    1.7727   -0.7819 H       1  UNL1        0.0000
     18 C           0.3878    2.8381   -4.0568 C.3     1  UNL1        0.0000
     19 H          -0.4641    3.5145   -4.0332 H       1  UNL1        0.0000
     20 H           1.1578    3.2803   -4.6840 H       1  UNL1        0.0000
     21 H           0.0631    1.9052   -4.5114 H       1  UNL1        0.0000
     22 C           2.9273    1.3480   -5.5197 C.ar    1  UNL1        0.0000
     23 H           2.0468    0.7887   -5.2486 H       1  UNL1        0.0000
     24 C           3.3888    1.2962   -6.8235 C.ar    1  UNL1        0.0000
     25 H           2.8547    0.7056   -7.5524 H       1  UNL1        0.0000
     26 C           4.5309    1.9854   -7.1940 C.ar    1  UNL1        0.0000
     27 H           4.8873    1.9316   -8.2116 H       1  UNL1        0.0000
     28 C           5.2301    2.7387   -6.2671 C.ar    1  UNL1        0.0000
     29 H           6.1270    3.2524   -6.5725 H       1  UNL1        0.0000
     30 C           6.5006    4.3217   -4.0551 C.3     1  UNL1        0.0000
     31 H           7.0757    4.2840   -3.1280 H       1  UNL1        0.0000
     32 H           7.1390    3.9265   -4.8496 H       1  UNL1        0.0000
     33 C           6.1825    5.8062   -4.3605 C.3     1  UNL1        0.0000
     34 C           7.5093    6.5699   -4.3254 C.3     1  UNL1        0.0000
     35 H           8.2125    6.1568   -5.0456 H       1  UNL1        0.0000
     36 H           7.3488    7.6178   -4.5675 H       1  UNL1        0.0000
     37 H           7.9573    6.5112   -3.3364 H       1  UNL1        0.0000
     38 C           5.5410    5.9649   -5.7397 C.3     1  UNL1        0.0000
     39 H           6.2209    5.6426   -6.5248 H       1  UNL1        0.0000
     40 H           4.6264    5.3818   -5.8119 H       1  UNL1        0.0000
     41 H           5.2949    7.0097   -5.9166 H       1  UNL1        0.0000
     42 C           5.2409    6.3905   -3.3082 C.3     1  UNL1        0.0000
     43 H           4.2671    5.9074   -3.3462 H       1  UNL1        0.0000
     44 H           5.6498    6.2698   -2.3069 H       1  UNL1        0.0000
     45 H           5.0962    7.4533   -3.4892 H       1  UNL1        0.0000
@<TRIPOS>BOND
     1    27    26    1
     2    25    24    1
     3    26    24   ar
     4    26    28   ar
     5    24    22   ar
     6    29    28    1
     7    39    38    1
     8    28     3   ar
     9    41    38    1
    10    40    38    1
    11    38    33    1
    12    22    23    1
    13    22     4   ar
    14    35    34    1
    15     3     4   ar
    16     3     2    1
    17    32    30    1
    18    20    18    1
    19     4     5    1
    20    36    34    1
    21    21    18    1
    22    33    34    1
    23    33    30    1
    24    33    42    1
    25    34    37    1
    26    18    19    1
    27    18     9    1
    28    30     2    1
    29    30    31    1
    30     2     1    1
    31    45    42    1
    32    43    42    1
    33    42    44    1
    34     5     6    1
    35     5     1    1
    36     7     6    1
    37     6     9    1
    38     6     8    1
    39     9    10    1
    40     9    14    1
    41    13    10    1
    42    16    14    1
    43    10    11    1
    44    10    12    1
    45    14    15    1
    46    14    17    1
    47     1     3    0
