@<TRIPOS>MOLECULE
1
 23 24 0 0 0
SMALL
GASTEIGER

@<TRIPOS>ATOM
      1 SI          7.6026    2.3204   -1.2227 Si      1  UNL1        0.0000
      2 O           6.7730    2.6628   -2.6280 O.3     1  UNL1        0.0000
      3 O           9.1550    1.8972   -1.6420 O.3     1  UNL1        0.0000
      4 O           7.7259    3.7471   -0.3651 O.3     1  UNL1        0.0000
      5 N           9.0612    4.6007   -2.9334 N.3     1  UNL1        0.0000
      6 C           6.6264    3.9548   -3.1488 C.3     1  UNL1        0.0000
      7 H           6.2975    4.6308   -2.3511 H       1  UNL1        0.0000
      8 H           5.8467    3.9099   -3.9190 H       1  UNL1        0.0000
      9 C           7.9126    4.5014   -3.7917 C.3     1  UNL1        0.0000
     10 H           8.1830    3.8600   -4.6328 H       1  UNL1        0.0000
     11 H           7.6720    5.5013   -4.1863 H       1  UNL1        0.0000
     12 C           9.7094    2.1644   -2.8979 C.3     1  UNL1        0.0000
     13 H           8.9867    1.8965   -3.6759 H       1  UNL1        0.0000
     14 H          10.5960    1.5300   -3.0020 H       1  UNL1        0.0000
     15 C          10.1196    3.6373   -3.0692 C.3     1  UNL1        0.0000
     16 H          10.8848    3.8822   -2.3302 H       1  UNL1        0.0000
     17 H          10.5655    3.7349   -4.0710 H       1  UNL1        0.0000
     18 C           8.8610    4.5651   -0.4180 C.3     1  UNL1        0.0000
     19 H           9.7543    3.9435   -0.3000 H       1  UNL1        0.0000
     20 H           8.8037    5.2598    0.4280 H       1  UNL1        0.0000
     21 C           8.9689    5.3712   -1.7235 C.3     1  UNL1        0.0000
     22 H           8.0993    6.0253   -1.8131 H       1  UNL1        0.0000
     23 H           9.8649    6.0049   -1.6328 H       1  UNL1        0.0000
@<TRIPOS>BOND
     1    10     9    1
     2    11     9    1
     3    17    15    1
     4     8     6    1
     5     9     6    1
     6     9     5    1
     7    13    12    1
     8     6     2    1
     9     6     7    1
    10    15     5    1
    11    15    12    1
    12    15    16    1
    13    14    12    1
    14     5    21    1
    15    12     3    1
    16     2     1    1
    17    22    21    1
    18    21    23    1
    19    21    18    1
    20     3     1    1
    21     1     4    1
    22    18     4    1
    23    18    19    1
    24    18    20    1
