@<TRIPOS>MOLECULE
2
 46 48 0 0 0
SMALL
GASTEIGER

@<TRIPOS>ATOM
      1 P           3.8260    5.9073    5.0011 P.3     1  UNL1        0.0000
      2 SI          3.9223    6.2426    1.7041 Si      1  UNL1        0.0000
      3 C           4.9789    7.8558    1.9881 C.3     1  UNL1        0.0000
      4 C           5.3289    4.9487    2.0743 C.3     1  UNL1        0.0000
      5 C           2.9571    6.2020    3.4732 C.3     1  UNL1        0.0000
      6 C           4.2634    4.1779    5.2721 C.ar    1  UNL1        0.0000
      7 C           3.7763    3.1843    4.4332 C.ar    1  UNL1        0.0000
      8 C           4.0667    1.8584    4.6999 C.ar    1  UNL1        0.0000
      9 C           4.8320    1.5244    5.8057 C.ar    1  UNL1        0.0000
     10 C           5.3010    2.5149    6.6552 C.ar    1  UNL1        0.0000
     11 C           5.0129    3.8420    6.3970 C.ar    1  UNL1        0.0000
     12 C           5.2625    6.9805    5.1984 C.ar    1  UNL1        0.0000
     13 C           6.5703    6.5120    5.1834 C.ar    1  UNL1        0.0000
     14 C           7.6181    7.4067    5.3174 C.ar    1  UNL1        0.0000
     15 C           7.3657    8.7608    5.4646 C.ar    1  UNL1        0.0000
     16 C           6.0604    9.2289    5.4855 C.ar    1  UNL1        0.0000
     17 C           5.0094    8.3423    5.3540 C.ar    1  UNL1        0.0000
     18 C           2.7518    6.2801    6.4213 C.ar    1  UNL1        0.0000
     19 C           3.2796    6.7785    7.6089 C.ar    1  UNL1        0.0000
     20 C           2.4482    7.0005    8.6916 C.ar    1  UNL1        0.0000
     21 C           1.0939    6.7217    8.5993 C.ar    1  UNL1        0.0000
     22 C           0.5676    6.2169    7.4211 C.ar    1  UNL1        0.0000
     23 C           1.3931    5.9924    6.3347 C.ar    1  UNL1        0.0000
     24 H           4.5288    8.5079    2.7282 H       1  UNL1        0.0000
     25 H           5.9794    7.6161    2.3361 H       1  UNL1        0.0000
     26 H           5.0850    8.4303    1.0746 H       1  UNL1        0.0000
     27 H           5.0425    3.9190    1.8962 H       1  UNL1        0.0000
     28 H           6.1999    5.1552    1.4602 H       1  UNL1        0.0000
     29 H           5.6394    5.0300    3.1131 H       1  UNL1        0.0000
     30 H           2.1383    5.4822    3.4324 H       1  UNL1        0.0000
     31 H           2.5138    7.1899    3.6060 H       1  UNL1        0.0000
     32 H           3.1850    3.4613    3.5739 H       1  UNL1        0.0000
     33 H           3.6950    1.0833    4.0467 H       1  UNL1        0.0000
     34 H           5.0597    0.4897    6.0103 H       1  UNL1        0.0000
     35 H           5.8885    2.2514    7.5212 H       1  UNL1        0.0000
     36 H           5.3645    4.6180    7.0631 H       1  UNL1        0.0000
     37 H           6.7717    5.4561    5.0705 H       1  UNL1        0.0000
     38 H           8.6347    7.0443    5.3061 H       1  UNL1        0.0000
     39 H           8.1867    9.4534    5.5670 H       1  UNL1        0.0000
     40 H           5.8647   10.2836    5.6049 H       1  UNL1        0.0000
     41 H           3.9865    8.6960    5.3785 H       1  UNL1        0.0000
     42 H           4.3347    7.0028    7.6818 H       1  UNL1        0.0000
     43 H           2.8588    7.3917    9.6098 H       1  UNL1        0.0000
     44 H           0.4488    6.8968    9.4462 H       1  UNL1        0.0000
     45 H          -0.4866    5.9967    7.3494 H       1  UNL1        0.0000
     46 H           0.9828    5.5962    5.4165 H       1  UNL1        0.0000
@<TRIPOS>BOND
     1    26     3    1
     2    28     4    1
     3     2     3    1
     4     2     4    1
     5     2     5    1
     6    27     4    1
     7     3    25    1
     8     3    24    1
     9     4    29    1
    10    30     5    1
    11     5    31    1
    12     5     1    1
    13    32     7    1
    14    33     8    1
    15     7     8   ar
    16     7     6   ar
    17     8     9   ar
    18     1    12    1
    19     1     6    1
    20     1    18    1
    21    37    13    1
    22    13    12   ar
    23    13    14   ar
    24    12    17   ar
    25     6    11   ar
    26    38    14    1
    27    14    15   ar
    28    17    41    1
    29    17    16   ar
    30    46    23    1
    31    15    16   ar
    32    15    39    1
    33    16    40    1
    34     9    34    1
    35     9    10   ar
    36    23    18   ar
    37    23    22   ar
    38    11    10   ar
    39    11    36    1
    40    18    19   ar
    41    10    35    1
    42    45    22    1
    43    22    21   ar
    44    19    42    1
    45    19    20   ar
    46    21    20   ar
    47    21    44    1
    48    20    43    1
