@<TRIPOS>MOLECULE
1
 32 33 0 0 0
SMALL
GASTEIGER

@<TRIPOS>ATOM
      1 SI          2.0756    2.2260    2.3376 Si      1  UNL1        0.0000
      2 N           3.6214    2.1574    1.4418 N.pl3   1  UNL1        0.0000
      3 C           1.7624    4.1141    2.6545 C.3     1  UNL1        0.0000
      4 C           0.7202    1.8591    1.0281 C.3     1  UNL1        0.0000
      5 C           4.8557    2.2655    2.0522 C.ar    1  UNL1        0.0000
      6 C           6.0145    1.8163    1.4042 C.ar    1  UNL1        0.0000
      7 C           7.2453    1.8875    2.0240 C.ar    1  UNL1        0.0000
      8 C           7.3621    2.4051    3.3044 C.ar    1  UNL1        0.0000
      9 C           6.2245    2.8575    3.9516 C.ar    1  UNL1        0.0000
     10 C           4.9893    2.7903    3.3360 C.ar    1  UNL1        0.0000
     11 C           3.6317    2.3044    0.0427 C.ar    1  UNL1        0.0000
     12 C           4.1901    3.4531   -0.5168 C.ar    1  UNL1        0.0000
     13 C           4.2069    3.6324   -1.8857 C.ar    1  UNL1        0.0000
     14 C           3.6650    2.6696   -2.7220 C.ar    1  UNL1        0.0000
     15 C           3.1119    1.5254   -2.1741 C.ar    1  UNL1        0.0000
     16 C           3.0976    1.3407   -0.8035 C.ar    1  UNL1        0.0000
     17 H           2.3621    4.5246    3.4600 H       1  UNL1        0.0000
     18 H           1.9824    4.6874    1.7582 H       1  UNL1        0.0000
     19 H           0.7217    4.2873    2.9058 H       1  UNL1        0.0000
     20 H          -0.2427    2.1349    1.4408 H       1  UNL1        0.0000
     21 H           0.8617    2.4261    0.1144 H       1  UNL1        0.0000
     22 H           0.6634    0.8106    0.7674 H       1  UNL1        0.0000
     23 H           5.9397    1.4098    0.4055 H       1  UNL1        0.0000
     24 H           8.1229    1.5312    1.5036 H       1  UNL1        0.0000
     25 H           8.3267    2.4607    3.7861 H       1  UNL1        0.0000
     26 H           6.2992    3.2801    4.9442 H       1  UNL1        0.0000
     27 H           4.1131    3.1678    3.8302 H       1  UNL1        0.0000
     28 H           4.6109    4.2011    0.1401 H       1  UNL1        0.0000
     29 H           4.6401    4.5299   -2.3035 H       1  UNL1        0.0000
     30 H           3.6767    2.8104   -3.7926 H       1  UNL1        0.0000
     31 H           2.6934    0.7662   -2.8195 H       1  UNL1        0.0000
     32 H           2.6764    0.4449   -0.3805 H       1  UNL1        0.0000
@<TRIPOS>BOND
     1    30    14    1
     2    31    15    1
     3    14    15   ar
     4    14    13   ar
     5    29    13    1
     6    15    16   ar
     7    13    12   ar
     8    16    32    1
     9    16    11   ar
    10    12    11   ar
    11    12    28    1
    12    11     2    1
    13    21     4    1
    14    23     6    1
    15    22     4    1
    16     4    20    1
    17     4     1    1
    18     6     7   ar
    19     6     5   ar
    20     2     5    1
    21     2     1    1
    22    24     7    1
    23    18     3    1
    24     7     8   ar
    25     5    10   ar
    26     1     3    1
    27     3    19    1
    28     3    17    1
    29     8    25    1
    30     8     9   ar
    31    10    27    1
    32    10     9   ar
    33     9    26    1
