@<TRIPOS>MOLECULE
1
 69 72 0 0 0
SMALL
GASTEIGER

@<TRIPOS>ATOM
      1 SI          7.7156    1.7368    3.6467 Si      1  UNL1        0.0000
      2 N           7.3183    2.0768    5.3973 N.3     1  UNL1        0.0000
      3 N           5.7272    1.5065    4.1009 N.3     1  UNL1        0.0000
      4 N           8.0043   -0.0646    3.5464 N.3     1  UNL1        0.0000
      5 N           9.6458    1.1860    4.0747 N.3     1  UNL1        0.0000
      6 C           5.9982    1.9910    5.2798 C.3     1  UNL1        0.0000
      7 C           4.9930    2.4024    6.2758 C.ar    1  UNL1        0.0000
      8 C           4.3426    3.6239    6.1247 C.ar    1  UNL1        0.0000
      9 H           4.6072    4.2696    5.3003 H       1  UNL1        0.0000
     10 C           3.3705    4.0069    7.0318 C.ar    1  UNL1        0.0000
     11 H           2.8732    4.9577    6.9127 H       1  UNL1        0.0000
     12 C           3.0347    3.1747    8.0870 C.ar    1  UNL1        0.0000
     13 H           2.2757    3.4760    8.7932 H       1  UNL1        0.0000
     14 C           3.6709    1.9535    8.2331 C.ar    1  UNL1        0.0000
     15 H           3.4077    1.2999    9.0516 H       1  UNL1        0.0000
     16 C           4.6446    1.5649    7.3296 C.ar    1  UNL1        0.0000
     17 H           5.1380    0.6095    7.4372 H       1  UNL1        0.0000
     18 C           8.0681    2.7366    6.4372 C.3     1  UNL1        0.0000
     19 H           9.1033    2.6627    6.0999 H       1  UNL1        0.0000
     20 C           7.7089    4.2180    6.5606 C.3     1  UNL1        0.0000
     21 H           7.7311    4.6887    5.5801 H       1  UNL1        0.0000
     22 H           8.4275    4.7197    7.2044 H       1  UNL1        0.0000
     23 H           6.7175    4.3456    6.9881 H       1  UNL1        0.0000
     24 C           7.9497    2.0201    7.7837 C.3     1  UNL1        0.0000
     25 H           8.1257    0.9548    7.6540 H       1  UNL1        0.0000
     26 H           6.9645    2.1656    8.2185 H       1  UNL1        0.0000
     27 H           8.6907    2.4139    8.4754 H       1  UNL1        0.0000
     28 C           4.3692    1.3190    3.6287 C.3     1  UNL1        0.0000
     29 H           3.7555    2.1606    3.9842 H       1  UNL1        0.0000
     30 C           4.3269    1.3107    2.1049 C.3     1  UNL1        0.0000
     31 H           4.9497    0.5170    1.7028 H       1  UNL1        0.0000
     32 H           4.6846    2.2591    1.7125 H       1  UNL1        0.0000
     33 H           3.3041    1.1566    1.7695 H       1  UNL1        0.0000
     34 C           3.7631    0.0299    4.1973 C.3     1  UNL1        0.0000
     35 H           2.7383   -0.0770    3.8506 H       1  UNL1        0.0000
     36 H           3.7578    0.0597    5.2841 H       1  UNL1        0.0000
     37 H           4.3316   -0.8389    3.8767 H       1  UNL1        0.0000
     38 C           9.3210   -0.0235    3.7146 C.3     1  UNL1        0.0000
     39 C          10.2751   -1.1260    3.4996 C.ar    1  UNL1        0.0000
     40 C          11.0152   -1.1684    2.3214 C.ar    1  UNL1        0.0000
     41 H          10.8560   -0.4137    1.5653 H       1  UNL1        0.0000
     42 C          11.9408   -2.1772    2.1218 C.ar    1  UNL1        0.0000
     43 H          12.5081   -2.2081    1.2038 H       1  UNL1        0.0000
     44 C          12.1410   -3.1425    3.0949 C.ar    1  UNL1        0.0000
     45 H          12.8641   -3.9284    2.9366 H       1  UNL1        0.0000
     46 C          11.4155   -3.0961    4.2734 C.ar    1  UNL1        0.0000
     47 H          11.5728   -3.8441    5.0365 H       1  UNL1        0.0000
     48 C          10.4876   -2.0900    4.4789 C.ar    1  UNL1        0.0000
     49 H           9.9247   -2.0473    5.4004 H       1  UNL1        0.0000
     50 C           7.2253   -1.1261    2.9587 C.3     1  UNL1        0.0000
     51 H           6.2149   -0.7158    2.9158 H       1  UNL1        0.0000
     52 C           7.6714   -1.4515    1.5325 C.3     1  UNL1        0.0000
     53 H           6.9424   -2.1036    1.0573 H       1  UNL1        0.0000
     54 H           8.6352   -1.9544    1.5296 H       1  UNL1        0.0000
     55 H           7.7520   -0.5360    0.9505 H       1  UNL1        0.0000
     56 C           7.1971   -2.3805    3.8338 C.3     1  UNL1        0.0000
     57 H           6.4344   -3.0650    3.4698 H       1  UNL1        0.0000
     58 H           6.9619   -2.1114    4.8609 H       1  UNL1        0.0000
     59 H           8.1549   -2.8934    3.8129 H       1  UNL1        0.0000
     60 C          11.0196    1.5883    4.3050 C.3     1  UNL1        0.0000
     61 H          11.6593    1.0934    3.5586 H       1  UNL1        0.0000
     62 C          11.1728    3.0957    4.1368 C.3     1  UNL1        0.0000
     63 H          10.9071    3.3912    3.1251 H       1  UNL1        0.0000
     64 H          12.2053    3.3802    4.3247 H       1  UNL1        0.0000
     65 H          10.5311    3.6317    4.8298 H       1  UNL1        0.0000
     66 C          11.4969    1.1438    5.6932 C.3     1  UNL1        0.0000
     67 H          11.4238    0.0636    5.7921 H       1  UNL1        0.0000
     68 H          10.8985    1.6052    6.4740 H       1  UNL1        0.0000
     69 H          12.5355    1.4332    5.8333 H       1  UNL1        0.0000
@<TRIPOS>BOND
     1    55    52    1
     2    53    52    1
     3    43    42    1
     4    54    52    1
     5    52    50    1
     6    41    40    1
     7    31    30    1
     8    32    30    1
     9    33    30    1
    10    30    28    1
    11    42    40   ar
    12    42    44   ar
    13    40    39   ar
    14    51    50    1
    15    45    44    1
    16    50     4    1
    17    50    56    1
    18    44    46   ar
    19    63    62    1
    20    57    56    1
    21    39    38    1
    22    39    48   ar
    23     4     1    1
    24     4    38    1
    25    61    60    1
    26    28    29    1
    27    28     3    1
    28    28    34    1
    29     1     5    1
    30     1     3    1
    31     1     2    1
    32    38     5    1
    33    59    56    1
    34    56    58    1
    35    35    34    1
    36    37    34    1
    37     5    60    1
    38     3     6    1
    39    62    60    1
    40    62    64    1
    41    62    65    1
    42    34    36    1
    43    46    48   ar
    44    46    47    1
    45    60    66    1
    46    48    49    1
    47     6     2    1
    48     6     7    1
    49     9     8    1
    50     2    18    1
    51    21    20    1
    52    66    67    1
    53    66    69    1
    54    66    68    1
    55    19    18    1
    56     8     7   ar
    57     8    10   ar
    58     7    16   ar
    59    18    20    1
    60    18    24    1
    61    20    23    1
    62    20    22    1
    63    11    10    1
    64    10    12   ar
    65    16    17    1
    66    16    14   ar
    67    25    24    1
    68    24    26    1
    69    24    27    1
    70    12    14   ar
    71    12    13    1
    72    14    15    1
