@<TRIPOS>MOLECULE
1
 69 72 0 0 0
SMALL
GASTEIGER

@<TRIPOS>ATOM
      1 SI          7.7365    1.7416    3.6883 Si      1  UNL1        0.0000
      2 N           7.3488    2.1050    5.4258 N.3     1  UNL1        0.0000
      3 N           5.7450    1.5011    4.1568 N.3     1  UNL1        0.0000
      4 N           8.0286   -0.0464    3.5581 N.3     1  UNL1        0.0000
      5 N           9.6773    1.1858    4.1192 N.3     1  UNL1        0.0000
      6 C           6.0297    1.9911    5.3276 C.3     1  UNL1        0.0000
      7 C           5.0391    2.3648    6.3538 C.ar    1  UNL1        0.0000
      8 C           4.7680    1.5156    7.4209 C.ar    1  UNL1        0.0000
      9 H           5.3087    0.5842    7.5122 H       1  UNL1        0.0000
     10 C           3.8108    1.8615    8.3588 C.ar    1  UNL1        0.0000
     11 H           3.6085    1.1989    9.1875 H       1  UNL1        0.0000
     12 C           3.1139    3.0514    8.2345 C.ar    1  UNL1        0.0000
     13 H           2.3680    3.3197    8.9676 H       1  UNL1        0.0000
     14 C           3.3725    3.8950    7.1667 C.ar    1  UNL1        0.0000
     15 H           2.8278    4.8216    7.0644 H       1  UNL1        0.0000
     16 C           4.3277    3.5543    6.2256 C.ar    1  UNL1        0.0000
     17 H           4.5328    4.2100    5.3921 H       1  UNL1        0.0000
     18 C           8.0923    2.8244    6.4290 C.3     1  UNL1        0.0000
     19 H           9.1188    2.8031    6.0592 H       1  UNL1        0.0000
     20 C           7.6554    4.2863    6.5373 C.3     1  UNL1        0.0000
     21 H           7.5838    4.7258    5.5438 H       1  UNL1        0.0000
     22 H           8.3851    4.8487    7.1149 H       1  UNL1        0.0000
     23 H           6.6889    4.3715    7.0280 H       1  UNL1        0.0000
     24 C           8.0554    2.1308    7.7922 C.3     1  UNL1        0.0000
     25 H           8.2899    1.0747    7.6791 H       1  UNL1        0.0000
     26 H           7.0758    2.2275    8.2530 H       1  UNL1        0.0000
     27 H           8.7909    2.5825    8.4540 H       1  UNL1        0.0000
     28 C           4.3786    1.2485    3.7417 C.3     1  UNL1        0.0000
     29 H           3.7402    2.0482    4.1475 H       1  UNL1        0.0000
     30 C           4.2538    1.2738    2.2229 C.3     1  UNL1        0.0000
     31 H           4.8700    0.5043    1.7666 H       1  UNL1        0.0000
     32 H           4.5643    2.2407    1.8344 H       1  UNL1        0.0000
     33 H           3.2177    1.1028    1.9402 H       1  UNL1        0.0000
     34 C           3.8688   -0.0828    4.3073 C.3     1  UNL1        0.0000
     35 H           2.8343   -0.2347    4.0092 H       1  UNL1        0.0000
     36 H           3.9169   -0.0760    5.3937 H       1  UNL1        0.0000
     37 H           4.4637   -0.9134    3.9381 H       1  UNL1        0.0000
     38 C           9.3422   -0.0155    3.7510 C.3     1  UNL1        0.0000
     39 C          10.2797   -1.1396    3.5727 C.ar    1  UNL1        0.0000
     40 C          11.0753   -1.2027    2.4325 C.ar    1  UNL1        0.0000
     41 H          10.9736   -0.4447    1.6697 H       1  UNL1        0.0000
     42 C          11.9819   -2.2363    2.2770 C.ar    1  UNL1        0.0000
     43 H          12.5924   -2.2827    1.3877 H       1  UNL1        0.0000
     44 C          12.1080   -3.2065    3.2575 C.ar    1  UNL1        0.0000
     45 H          12.8165   -4.0118    3.1338 H       1  UNL1        0.0000
     46 C          11.3269   -3.1404    4.3989 C.ar    1  UNL1        0.0000
     47 H          11.4259   -3.8925    5.1677 H       1  UNL1        0.0000
     48 C          10.4177   -2.1094    4.5596 C.ar    1  UNL1        0.0000
     49 H           9.8110   -2.0519    5.4522 H       1  UNL1        0.0000
     50 C           7.2666   -1.0791    2.9024 C.3     1  UNL1        0.0000
     51 H           6.2674   -0.6496    2.8121 H       1  UNL1        0.0000
     52 C           7.7860   -1.3763    1.4947 C.3     1  UNL1        0.0000
     53 H           7.0568   -1.9703    0.9489 H       1  UNL1        0.0000
     54 H           8.7218   -1.9286    1.5306 H       1  UNL1        0.0000
     55 H           7.9497   -0.4443    0.9561 H       1  UNL1        0.0000
     56 C           7.1696   -2.3559    3.7397 C.3     1  UNL1        0.0000
     57 H           6.4200   -3.0184    3.3127 H       1  UNL1        0.0000
     58 H           6.8795   -2.1120    4.7591 H       1  UNL1        0.0000
     59 H           8.1200   -2.8830    3.7595 H       1  UNL1        0.0000
     60 C          11.0511    1.5432    4.4158 C.3     1  UNL1        0.0000
     61 H          11.7075    1.0082    3.7124 H       1  UNL1        0.0000
     62 C          11.2808    3.0381    4.2270 C.3     1  UNL1        0.0000
     63 H          11.0554    3.3286    3.2038 H       1  UNL1        0.0000
     64 H          12.3219    3.2752    4.4335 H       1  UNL1        0.0000
     65 H          10.6528    3.6184    4.8970 H       1  UNL1        0.0000
     66 C          11.4401    1.1082    5.8340 C.3     1  UNL1        0.0000
     67 H          11.3176    0.0337    5.9478 H       1  UNL1        0.0000
     68 H          10.8239    1.6089    6.5753 H       1  UNL1        0.0000
     69 H          12.4820    1.3577    6.0203 H       1  UNL1        0.0000
@<TRIPOS>BOND
     1    53    52    1
     2    55    52    1
     3    43    42    1
     4    52    54    1
     5    52    50    1
     6    41    40    1
     7    31    30    1
     8    32    30    1
     9    33    30    1
    10    30    28    1
    11    42    40   ar
    12    42    44   ar
    13    40    39   ar
    14    51    50    1
    15    50     4    1
    16    50    56    1
    17    45    44    1
    18    63    62    1
    19    44    46   ar
    20    57    56    1
    21     4     1    1
    22     4    38    1
    23    39    38    1
    24    39    48   ar
    25     1     5    1
    26     1     3    1
    27     1     2    1
    28    61    60    1
    29    56    59    1
    30    56    58    1
    31    28    29    1
    32    28     3    1
    33    28    34    1
    34    38     5    1
    35    37    34    1
    36    35    34    1
    37     5    60    1
    38     3     6    1
    39    62    60    1
    40    62    64    1
    41    62    65    1
    42    34    36    1
    43    46    48   ar
    44    46    47    1
    45    60    66    1
    46    48    49    1
    47     6     2    1
    48     6     7    1
    49    17    16    1
    50     2    18    1
    51    21    20    1
    52    66    67    1
    53    66    69    1
    54    66    68    1
    55    19    18    1
    56    16     7   ar
    57    16    14   ar
    58     7     8   ar
    59    18    20    1
    60    18    24    1
    61    20    23    1
    62    20    22    1
    63    15    14    1
    64    14    12   ar
    65     8     9    1
    66     8    10   ar
    67    25    24    1
    68    24    26    1
    69    24    27    1
    70    12    10   ar
    71    12    13    1
    72    10    11    1
