@<TRIPOS>MOLECULE
1
 69 72 0 0 0
SMALL
GASTEIGER

@<TRIPOS>ATOM
      1 SI          0.8573    8.2458    4.2787 Si      1  UNL1        0.0000
      2 N           0.9558   10.2520    4.4035 N.3     1  UNL1        0.0000
      3 N           1.6868    9.0280    2.8411 N.3     1  UNL1        0.0000
      4 N           0.4883    6.5646    3.2500 N.3     1  UNL1        0.0000
      5 N          -0.8808    8.1364    3.6799 N.3     1  UNL1        0.0000
      6 C           1.6855   10.2639    3.3217 C.3     1  UNL1        0.0000
      7 C           2.4022   11.4129    2.7425 C.ar    1  UNL1        0.0000
      8 C           3.7647   11.5638    2.9828 C.ar    1  UNL1        0.0000
      9 H           4.2793   10.8378    3.5944 H       1  UNL1        0.0000
     10 C           4.4452   12.6457    2.4531 C.ar    1  UNL1        0.0000
     11 H           5.5017   12.7588    2.6450 H       1  UNL1        0.0000
     12 C           3.7757   13.5804    1.6803 C.ar    1  UNL1        0.0000
     13 H           4.3094   14.4231    1.2672 H       1  UNL1        0.0000
     14 C           2.4201   13.4332    1.4391 C.ar    1  UNL1        0.0000
     15 H           1.8944   14.1599    0.8375 H       1  UNL1        0.0000
     16 C           1.7326   12.3551    1.9691 C.ar    1  UNL1        0.0000
     17 H           0.6761   12.2356    1.7751 H       1  UNL1        0.0000
     18 C           0.8565   11.2671    5.4269 C.3     1  UNL1        0.0000
     19 H           0.3246   10.7685    6.2467 H       1  UNL1        0.0000
     20 C           2.2166   11.7191    5.9630 C.3     1  UNL1        0.0000
     21 H           2.8355   10.8558    6.1913 H       1  UNL1        0.0000
     22 H           2.0728   12.2893    6.8774 H       1  UNL1        0.0000
     23 H           2.7342   12.3465    5.2416 H       1  UNL1        0.0000
     24 C           0.0425   12.4862    4.9814 C.3     1  UNL1        0.0000
     25 H           0.5592   13.0235    4.1896 H       1  UNL1        0.0000
     26 H          -0.0849   13.1586    5.8263 H       1  UNL1        0.0000
     27 H          -0.9415   12.1921    4.6263 H       1  UNL1        0.0000
     28 C           2.1837    8.5567    1.5722 C.3     1  UNL1        0.0000
     29 H           1.8359    7.5218    1.5199 H       1  UNL1        0.0000
     30 C           3.7121    8.5655    1.5061 C.3     1  UNL1        0.0000
     31 H           4.0496    7.9778    0.6554 H       1  UNL1        0.0000
     32 H           4.1249    8.1351    2.4150 H       1  UNL1        0.0000
     33 H           4.0899    9.5787    1.3950 H       1  UNL1        0.0000
     34 C           1.5720    9.3202    0.3960 C.3     1  UNL1        0.0000
     35 H           1.8097    8.8097   -0.5343 H       1  UNL1        0.0000
     36 H           1.9620   10.3333    0.3404 H       1  UNL1        0.0000
     37 H           0.4905    9.3655    0.5030 H       1  UNL1        0.0000
     38 C          -0.7642    6.9191    3.1761 C.3     1  UNL1        0.0000
     39 C          -1.8739    6.1208    2.6338 C.ar    1  UNL1        0.0000
     40 C          -2.8632    5.6329    3.4828 C.ar    1  UNL1        0.0000
     41 H          -2.8047    5.8423    4.5410 H       1  UNL1        0.0000
     42 C          -3.8985    4.8714    2.9714 C.ar    1  UNL1        0.0000
     43 H          -4.6611    4.4902    3.6340 H       1  UNL1        0.0000
     44 C          -3.9574    4.5983    1.6144 C.ar    1  UNL1        0.0000
     45 H          -4.7670    4.0041    1.2179 H       1  UNL1        0.0000
     46 C          -2.9780    5.0874    0.7664 C.ar    1  UNL1        0.0000
     47 H          -3.0239    4.8775   -0.2919 H       1  UNL1        0.0000
     48 C          -1.9369    5.8454    1.2724 C.ar    1  UNL1        0.0000
     49 H          -1.1736    6.2358    0.6145 H       1  UNL1        0.0000
     50 C           0.9704    5.2206    3.0162 C.3     1  UNL1        0.0000
     51 H           0.5965    4.8809    2.0368 H       1  UNL1        0.0000
     52 C           0.4533    4.2555    4.0865 C.3     1  UNL1        0.0000
     53 H          -0.6338    4.2429    4.1043 H       1  UNL1        0.0000
     54 H           0.8137    4.5647    5.0642 H       1  UNL1        0.0000
     55 H           0.8079    3.2484    3.8814 H       1  UNL1        0.0000
     56 C           2.4954    5.2148    3.0041 C.3     1  UNL1        0.0000
     57 H           2.8582    4.1917    2.9487 H       1  UNL1        0.0000
     58 H           2.8634    5.6731    3.9183 H       1  UNL1        0.0000
     59 H           2.8882    5.7658    2.1552 H       1  UNL1        0.0000
     60 C          -2.0969    8.9092    3.6966 C.3     1  UNL1        0.0000
     61 H          -2.9144    8.2568    3.3588 H       1  UNL1        0.0000
     62 C          -2.3977    9.3762    5.1167 C.3     1  UNL1        0.0000
     63 H          -3.3303    9.9347    5.1414 H       1  UNL1        0.0000
     64 H          -1.5915   10.0046    5.4781 H       1  UNL1        0.0000
     65 H          -2.4856    8.5190    5.7792 H       1  UNL1        0.0000
     66 C          -1.9786   10.0802    2.7204 C.3     1  UNL1        0.0000
     67 H          -1.8683    9.7081    1.7035 H       1  UNL1        0.0000
     68 H          -1.1049   10.6731    2.9710 H       1  UNL1        0.0000
     69 H          -2.8671   10.7050    2.7671 H       1  UNL1        0.0000
@<TRIPOS>BOND
     1    35    34    1
     2    47    46    1
     3    36    34    1
     4    34    37    1
     5    34    28    1
     6    49    48    1
     7    31    30    1
     8    46    48   ar
     9    46    44   ar
    10    15    14    1
    11    45    44    1
    12    13    12    1
    13    48    39   ar
    14    33    30    1
    15    14    12   ar
    16    14    16   ar
    17    30    28    1
    18    30    32    1
    19    29    28    1
    20    28     3    1
    21    44    42   ar
    22    12    10   ar
    23    67    66    1
    24    17    16    1
    25    16     7   ar
    26    51    50    1
    27    59    56    1
    28    10    11    1
    29    10     8   ar
    30    39    38    1
    31    39    40   ar
    32    66    69    1
    33    66    68    1
    34    66    60    1
    35     7     8   ar
    36     7     6    1
    37     3     6    1
    38     3     1    1
    39    57    56    1
    40    42    40   ar
    41    42    43    1
    42     8     9    1
    43    56    50    1
    44    56    58    1
    45    50     4    1
    46    50    52    1
    47    38     4    1
    48    38     5    1
    49     4     1    1
    50     6     2    1
    51    61    60    1
    52    40    41    1
    53     5    60    1
    54     5     1    1
    55    60    62    1
    56    55    52    1
    57    52    53    1
    58    52    54    1
    59    25    24    1
    60     1     2    1
    61     2    18    1
    62    27    24    1
    63    24    18    1
    64    24    26    1
    65    62    63    1
    66    62    64    1
    67    62    65    1
    68    23    20    1
    69    18    20    1
    70    18    19    1
    71    20    21    1
    72    20    22    1
