@<TRIPOS>MOLECULE
1
 50 50 0 0 0
SMALL
GASTEIGER

@<TRIPOS>ATOM
      1 SI          2.4017    3.1876   -0.6317 Si      1  UNL1        0.0000
      2 SI          2.7652    1.7879   -2.5552 Si      1  UNL1        0.0000
      3 SI          1.7927    2.2896   -4.6599 Si      1  UNL1        0.0000
      4 SI          2.1392    4.5360   -5.3304 Si      1  UNL1        0.0000
      5 SI          1.8784    6.1045   -3.5724 Si      1  UNL1        0.0000
      6 SI          2.8278    5.3812   -1.5221 Si      1  UNL1        0.0000
      7 C           0.4527    3.2315   -0.6760 C.3     1  UNL1        0.0000
      8 H           0.0413    2.2573   -0.4261 H       1  UNL1        0.0000
      9 H           0.0523    3.5170   -1.6449 H       1  UNL1        0.0000
     10 H           0.0681    3.9356    0.0569 H       1  UNL1        0.0000
     11 C           2.2899   -0.0217   -2.0913 C.3     1  UNL1        0.0000
     12 H           1.2171   -0.1026   -1.9408 H       1  UNL1        0.0000
     13 H           2.7690   -0.3181   -1.1605 H       1  UNL1        0.0000
     14 H           2.5721   -0.7469   -2.8510 H       1  UNL1        0.0000
     15 C           4.6437    1.6847   -2.9341 C.3     1  UNL1        0.0000
     16 H           5.0107    2.6369   -3.3035 H       1  UNL1        0.0000
     17 H           4.8789    0.9315   -3.6802 H       1  UNL1        0.0000
     18 H           5.2100    1.4461   -2.0405 H       1  UNL1        0.0000
     19 C           2.3471    1.1080   -6.0903 C.3     1  UNL1        0.0000
     20 H           2.1316    0.0682   -5.8576 H       1  UNL1        0.0000
     21 H           3.4189    1.1904   -6.2439 H       1  UNL1        0.0000
     22 H           1.8612    1.3400   -7.0350 H       1  UNL1        0.0000
     23 C          -0.1087    2.0283   -4.5863 C.3     1  UNL1        0.0000
     24 H          -0.5467    2.7052   -3.8609 H       1  UNL1        0.0000
     25 H          -0.3646    1.0188   -4.2806 H       1  UNL1        0.0000
     26 H          -0.5922    2.2152   -5.5405 H       1  UNL1        0.0000
     27 C           3.9414    4.6804   -5.9768 C.3     1  UNL1        0.0000
     28 H           4.1407    3.9973   -6.7968 H       1  UNL1        0.0000
     29 H           4.6357    4.4400   -5.1786 H       1  UNL1        0.0000
     30 H           4.1767    5.6829   -6.3209 H       1  UNL1        0.0000
     31 C           1.0656    4.9999   -6.8705 C.3     1  UNL1        0.0000
     32 H           0.0112    4.9500   -6.6166 H       1  UNL1        0.0000
     33 H           1.2329    4.3226   -7.7043 H       1  UNL1        0.0000
     34 H           1.2692    6.0081   -7.2222 H       1  UNL1        0.0000
     35 C           2.5092    7.8351   -4.1694 C.3     1  UNL1        0.0000
     36 H           3.5789    7.7957   -4.3519 H       1  UNL1        0.0000
     37 H           2.3356    8.6048   -3.4216 H       1  UNL1        0.0000
     38 H           2.0306    8.1588   -5.0905 H       1  UNL1        0.0000
     39 C          -0.0112    6.3728   -3.3571 C.3     1  UNL1        0.0000
     40 H          -0.4881    5.4370   -3.0863 H       1  UNL1        0.0000
     41 H          -0.4877    6.7314   -4.2646 H       1  UNL1        0.0000
     42 H          -0.2291    7.0856   -2.5680 H       1  UNL1        0.0000
     43 C           2.3833    6.6818   -0.1706 C.3     1  UNL1        0.0000
     44 H           1.3093    6.7035   -0.0085 H       1  UNL1        0.0000
     45 H           2.6989    7.6906   -0.4260 H       1  UNL1        0.0000
     46 H           2.8470    6.4233    0.7791 H       1  UNL1        0.0000
     47 C           4.7158    5.6091   -1.7791 C.3     1  UNL1        0.0000
     48 H           5.0639    5.0004   -2.6074 H       1  UNL1        0.0000
     49 H           5.2687    5.3007   -0.8983 H       1  UNL1        0.0000
     50 H           4.9884    6.6386   -1.9920 H       1  UNL1        0.0000
@<TRIPOS>BOND
     1    33    31    1
     2    34    31    1
     3    22    19    1
     4    31    32    1
     5    31     4    1
     6    28    27    1
     7    30    27    1
     8    21    19    1
     9    19    20    1
    10    19     3    1
    11    27     4    1
    12    27    29    1
    13    26    23    1
    14     4     3    1
    15     4     5    1
    16    38    35    1
    17     3    23    1
    18     3     2    1
    19    23    25    1
    20    23    24    1
    21    36    35    1
    22    41    39    1
    23    35     5    1
    24    35    37    1
    25    17    15    1
    26     5    39    1
    27     5     6    1
    28    39    40    1
    29    39    42    1
    30    16    15    1
    31    15     2    1
    32    15    18    1
    33    14    11    1
    34    48    47    1
    35     2    11    1
    36     2     1    1
    37    11    12    1
    38    11    13    1
    39    50    47    1
    40    47     6    1
    41    47    49    1
    42     9     7    1
    43     6     1    1
    44     6    43    1
    45     7     1    1
    46     7     8    1
    47     7    10    1
    48    45    43    1
    49    43    44    1
    50    43    46    1
