@<TRIPOS>MOLECULE
1
 27 28 0 0 0
SMALL
GASTEIGER

@<TRIPOS>ATOM
      1 SI          0.8321   14.0411    6.0417 Si      1  UNL1        0.0000
      2 C           0.3557   13.9339    7.9032 C.3     1  UNL1        0.0000
      3 C           0.3136   15.3189    8.5350 C.3     1  UNL1        0.0000
      4 C          -0.7067   16.2335    7.8681 C.3     1  UNL1        0.0000
      5 C          -0.3246   16.6133    6.4423 C.3     1  UNL1        0.0000
      6 C          -0.3857   15.4262    5.4892 C.3     1  UNL1        0.0000
      7 C           2.5508   14.8872    5.9625 C.ar    1  UNL1        0.0000
      8 C           2.8343   15.8205    4.9678 C.ar    1  UNL1        0.0000
      9 C           4.0679   16.4416    4.8885 C.ar    1  UNL1        0.0000
     10 C           5.0561   16.1411    5.8109 C.ar    1  UNL1        0.0000
     11 C           4.7918   15.2261    6.8157 C.ar    1  UNL1        0.0000
     12 C           3.5536   14.6129    6.8860 C.ar    1  UNL1        0.0000
     13 H           2.0738   16.0625    4.2413 H       1  UNL1        0.0000
     14 H           4.2592   17.1622    4.1054 H       1  UNL1        0.0000
     15 H           6.0221   16.6221    5.7519 H       1  UNL1        0.0000
     16 H           5.5527   14.9937    7.5479 H       1  UNL1        0.0000
     17 H           3.3599   13.9165    7.6870 H       1  UNL1        0.0000
     18 H           1.0433   13.3099    8.4695 H       1  UNL1        0.0000
     19 H          -0.6268   13.4701    7.9910 H       1  UNL1        0.0000
     20 H           1.3028   15.7776    8.4668 H       1  UNL1        0.0000
     21 H           0.0639   15.2293    9.5974 H       1  UNL1        0.0000
     22 H          -1.6804   15.7381    7.8581 H       1  UNL1        0.0000
     23 H          -0.8044   17.1461    8.4629 H       1  UNL1        0.0000
     24 H          -1.0050   17.3959    6.0917 H       1  UNL1        0.0000
     25 H           0.6850   17.0303    6.4403 H       1  UNL1        0.0000
     26 H          -1.4025   15.0369    5.4768 H       1  UNL1        0.0000
     27 H          -0.1761   15.7695    4.4786 H       1  UNL1        0.0000
@<TRIPOS>BOND
     1    14     9    1
     2    13     8    1
     3    27     6    1
     4     9     8   ar
     5     9    10   ar
     6     8     7   ar
     7    26     6    1
     8     6     1    1
     9     6     5    1
    10    15    10    1
    11    10    11   ar
    12     7     1    1
    13     7    12   ar
    14     1     2    1
    15    24     5    1
    16    25     5    1
    17     5     4    1
    18    11    12   ar
    19    11    16    1
    20    12    17    1
    21    22     4    1
    22     4    23    1
    23     4     3    1
    24     2    19    1
    25     2    18    1
    26     2     3    1
    27    20     3    1
    28     3    21    1
