@<TRIPOS>MOLECULE
2
 24 25 0 0 0
SMALL
GASTEIGER

@<TRIPOS>ATOM
      1 C           6.9898    3.9873    9.7148 C.ar    1  UNL1        0.0000
      2 SI          5.8110    2.7009    8.9356 Si      1  UNL1        0.0000
      3 C           6.8106    5.3365    9.4207 C.ar    1  UNL1        0.0000
      4 H           5.9832    5.6366    8.7950 H       1  UNL1        0.0000
      5 CL          6.3166    0.9017    9.9404 Cl      1  UNL1        0.0000
      6 C           3.2996    4.0990    9.0498 C.ar    1  UNL1        0.0000
      7 H           3.6761    4.5998    8.1701 H       1  UNL1        0.0000
      8 C           2.3280    2.8275   11.2991 C.ar    1  UNL1        0.0000
      9 H           1.9545    2.3292   12.1825 H       1  UNL1        0.0000
     10 C           8.9371    4.5847   11.0145 C.ar    1  UNL1        0.0000
     11 H           9.7676    4.2848   11.6384 H       1  UNL1        0.0000
     12 C           7.6768    6.2949    9.9125 C.ar    1  UNL1        0.0000
     13 H           7.5206    7.3372    9.6721 H       1  UNL1        0.0000
     14 C           4.0817    3.1229    9.6618 C.ar    1  UNL1        0.0000
     15 C           8.7465    5.9212   10.7098 C.ar    1  UNL1        0.0000
     16 H           9.4273    6.6687   11.0920 H       1  UNL1        0.0000
     17 C           1.5620    3.7972   10.6755 C.ar    1  UNL1        0.0000
     18 H           0.5889    4.0575   11.0667 H       1  UNL1        0.0000
     19 C           2.0540    4.4348    9.5486 C.ar    1  UNL1        0.0000
     20 H           1.4645    5.1973    9.0586 H       1  UNL1        0.0000
     21 C           8.0666    3.6294   10.5201 C.ar    1  UNL1        0.0000
     22 H           8.2225    2.5900   10.7707 H       1  UNL1        0.0000
     23 C           3.5741    2.4966   10.7967 C.ar    1  UNL1        0.0000
     24 H           4.1646    1.7424   11.2954 H       1  UNL1        0.0000
@<TRIPOS>BOND
     1     7     6    1
     2     4     3    1
     3     2    14    1
     4     2     1    1
     5     2     5    1
     6     6    19   ar
     7     6    14   ar
     8    20    19    1
     9     3     1   ar
    10     3    12   ar
    11    19    17   ar
    12    14    23   ar
    13    13    12    1
    14     1    21   ar
    15    12    15   ar
    16    21    22    1
    17    21    10   ar
    18    17    18    1
    19    17     8   ar
    20    15    10   ar
    21    15    16    1
    22    23    24    1
    23    23     8   ar
    24    10    11    1
    25     8     9    1
