@<TRIPOS>MOLECULE
1
 24 25 0 0 0
SMALL
GASTEIGER

@<TRIPOS>ATOM
      1 SI         -1.6050    1.6751    6.9630 Si      1  UNL1        0.0000
      2 F          -2.1242    2.9181    6.0089 F       1  UNL1        0.0000
      3 C          -0.1740    0.9671    5.9250 C.ar    1  UNL1        0.0000
      4 C           0.6479   -0.0360    6.4338 C.ar    1  UNL1        0.0000
      5 C           1.6977   -0.5405    5.6892 C.ar    1  UNL1        0.0000
      6 C           1.9448   -0.0528    4.4161 C.ar    1  UNL1        0.0000
      7 C           1.1389    0.9457    3.8969 C.ar    1  UNL1        0.0000
      8 C           0.0904    1.4497    4.6459 C.ar    1  UNL1        0.0000
      9 C          -0.9282    2.5541    8.5173 C.ar    1  UNL1        0.0000
     10 C          -0.0117    3.5949    8.3969 C.ar    1  UNL1        0.0000
     11 C           0.4694    4.2496    9.5166 C.ar    1  UNL1        0.0000
     12 C           0.0455    3.8675   10.7780 C.ar    1  UNL1        0.0000
     13 C          -0.8604    2.8280   10.9141 C.ar    1  UNL1        0.0000
     14 C          -1.3426    2.1771    9.7933 C.ar    1  UNL1        0.0000
     15 H           0.4553   -0.4205    7.4244 H       1  UNL1        0.0000
     16 H           2.3256   -1.3175    6.1004 H       1  UNL1        0.0000
     17 H           2.7626   -0.4487    3.8316 H       1  UNL1        0.0000
     18 H           1.3278    1.3328    2.9058 H       1  UNL1        0.0000
     19 H          -0.5280    2.2340    4.2354 H       1  UNL1        0.0000
     20 H           0.3200    3.8943    7.4140 H       1  UNL1        0.0000
     21 H           1.1761    5.0592    9.4057 H       1  UNL1        0.0000
     22 H           0.4196    4.3784   11.6531 H       1  UNL1        0.0000
     23 H          -1.1929    2.5267   11.8965 H       1  UNL1        0.0000
     24 H          -2.0552    1.3603    9.8920 H       1  UNL1        0.0000
@<TRIPOS>BOND
     1    18     7    1
     2    17     6    1
     3     7     6   ar
     4     7     8   ar
     5    19     8    1
     6     6     5   ar
     7     8     3   ar
     8     5    16    1
     9     5     4   ar
    10     3     4   ar
    11     3     1    1
    12     2     1    1
    13     4    15    1
    14     1     9    1
    15    20    10    1
    16    10     9   ar
    17    10    11   ar
    18     9    14   ar
    19    21    11    1
    20    11    12   ar
    21    14    24    1
    22    14    13   ar
    23    12    13   ar
    24    12    22    1
    25    13    23    1
