@<TRIPOS>MOLECULE
1
 82 85 0 0 0
SMALL
GASTEIGER

@<TRIPOS>ATOM
      1 SI          2.7938    0.2548    4.8604 Si      1  UNL1        0.0000
      2 N           2.5977    1.8154    3.8138 N.pl3   1  UNL1        0.0000
      3 N           1.0314    0.8940    4.9111 N.pl3   1  UNL1        0.0000
      4 N           3.3592    0.8325    6.4200 N.3     1  UNL1        0.0000
      5 C           1.2932    1.8375    4.0155 C.3     1  UNL1        0.0000
      6 C           0.3015    2.6481    3.3196 C.ar    1  UNL1        0.0000
      7 C           0.5982    3.9316    2.8628 C.ar    1  UNL1        0.0000
      8 H           1.5760    4.3517    3.0349 H       1  UNL1        0.0000
      9 C          -0.3617    4.6699    2.1962 C.ar    1  UNL1        0.0000
     10 H          -0.1248    5.6650    1.8511 H       1  UNL1        0.0000
     11 C          -1.6194    4.1357    1.9667 C.ar    1  UNL1        0.0000
     12 H          -2.3653    4.7141    1.4427 H       1  UNL1        0.0000
     13 C          -1.9167    2.8558    2.4072 C.ar    1  UNL1        0.0000
     14 H          -2.8931    2.4335    2.2240 H       1  UNL1        0.0000
     15 C          -0.9663    2.1153    3.0836 C.ar    1  UNL1        0.0000
     16 H          -1.1953    1.1158    3.4187 H       1  UNL1        0.0000
     17 C           3.3172    2.5332    2.8389 C.ar    1  UNL1        0.0000
     18 C           3.1759    2.2501    1.4742 C.ar    1  UNL1        0.0000
     19 C           3.9018    3.0092    0.5654 C.ar    1  UNL1        0.0000
     20 H           3.8038    2.8074   -0.4900 H       1  UNL1        0.0000
     21 C           4.7471    4.0165    0.9841 C.ar    1  UNL1        0.0000
     22 H           5.2986    4.5972    0.2597 H       1  UNL1        0.0000
     23 C           4.8898    4.2753    2.3333 C.ar    1  UNL1        0.0000
     24 H           5.5544    5.0620    2.6552 H       1  UNL1        0.0000
     25 C           4.1892    3.5400    3.2779 C.ar    1  UNL1        0.0000
     26 C           2.2800    1.1494    0.9585 C.3     1  UNL1        0.0000
     27 H           1.8068    0.6478    1.8096 H       1  UNL1        0.0000
     28 C           1.1774    1.7080    0.0540 C.3     1  UNL1        0.0000
     29 H           1.6014    2.1347   -0.8516 H       1  UNL1        0.0000
     30 H           0.6076    2.4823    0.5619 H       1  UNL1        0.0000
     31 H           0.4961    0.9098   -0.2318 H       1  UNL1        0.0000
     32 C           3.1003    0.1070    0.1943 C.3     1  UNL1        0.0000
     33 H           2.4586   -0.7136   -0.1171 H       1  UNL1        0.0000
     34 H           3.8889   -0.2952    0.8275 H       1  UNL1        0.0000
     35 H           3.5553    0.5415   -0.6921 H       1  UNL1        0.0000
     36 C           4.3481    3.8565    4.7478 C.3     1  UNL1        0.0000
     37 H           3.8689    3.0639    5.3273 H       1  UNL1        0.0000
     38 C           3.6584    5.1797    5.0956 C.3     1  UNL1        0.0000
     39 H           4.0549    5.9933    4.4913 H       1  UNL1        0.0000
     40 H           3.8227    5.4177    6.1443 H       1  UNL1        0.0000
     41 H           2.5854    5.1169    4.9261 H       1  UNL1        0.0000
     42 C           5.8261    3.9156    5.1415 C.3     1  UNL1        0.0000
     43 H           6.3608    3.0510    4.7550 H       1  UNL1        0.0000
     44 H           5.9229    3.9279    6.2247 H       1  UNL1        0.0000
     45 H           6.3019    4.8120    4.7514 H       1  UNL1        0.0000
     46 C          -0.1116    0.7964    5.7206 C.ar    1  UNL1        0.0000
     47 C          -0.5193    1.8890    6.5069 C.ar    1  UNL1        0.0000
     48 C          -1.6199    1.7285    7.3379 C.ar    1  UNL1        0.0000
     49 H          -1.9472    2.5580    7.9455 H       1  UNL1        0.0000
     50 C          -2.3010    0.5299    7.4127 C.ar    1  UNL1        0.0000
     51 H          -3.1498    0.4287    8.0721 H       1  UNL1        0.0000
     52 C          -1.8897   -0.5370    6.6391 C.ar    1  UNL1        0.0000
     53 H          -2.4218   -1.4736    6.6975 H       1  UNL1        0.0000
     54 C          -0.8046   -0.4207    5.7830 C.ar    1  UNL1        0.0000
     55 C           0.1939    3.2225    6.5055 C.3     1  UNL1        0.0000
     56 H           1.0358    3.1817    5.8102 H       1  UNL1        0.0000
     57 C          -0.7507    4.3410    6.0541 C.3     1  UNL1        0.0000
     58 H          -0.1977    5.2692    5.9248 H       1  UNL1        0.0000
     59 H          -1.5276    4.5105    6.7954 H       1  UNL1        0.0000
     60 H          -1.2302    4.0912    5.1107 H       1  UNL1        0.0000
     61 C           0.7656    3.5469    7.8880 C.3     1  UNL1        0.0000
     62 H           1.2794    4.5054    7.8560 H       1  UNL1        0.0000
     63 H           1.4754    2.7845    8.1933 H       1  UNL1        0.0000
     64 H          -0.0217    3.6057    8.6352 H       1  UNL1        0.0000
     65 C          -0.3917   -1.5961    4.9330 C.3     1  UNL1        0.0000
     66 H           0.3797   -1.2585    4.2368 H       1  UNL1        0.0000
     67 C          -1.5595   -2.1434    4.1093 C.3     1  UNL1        0.0000
     68 H          -2.0389   -1.3479    3.5416 H       1  UNL1        0.0000
     69 H          -2.3084   -2.6117    4.7427 H       1  UNL1        0.0000
     70 H          -1.1916   -2.8893    3.4089 H       1  UNL1        0.0000
     71 C           0.2117   -2.6940    5.8099 C.3     1  UNL1        0.0000
     72 H           0.5729   -3.5105    5.1895 H       1  UNL1        0.0000
     73 H          -0.5289   -3.0848    6.5041 H       1  UNL1        0.0000
     74 H           1.0494   -2.3018    6.3820 H       1  UNL1        0.0000
     75 C           4.7961    0.7887    6.6111 C.3     1  UNL1        0.0000
     76 H           5.3010    1.1480    5.7209 H       1  UNL1        0.0000
     77 H           5.1449   -0.2315    6.8111 H       1  UNL1        0.0000
     78 H           5.0677    1.4222    7.4570 H       1  UNL1        0.0000
     79 C           2.6868    0.3302    7.6046 C.3     1  UNL1        0.0000
     80 H           2.9558    0.9535    8.4601 H       1  UNL1        0.0000
     81 H           2.9831   -0.6998    7.8321 H       1  UNL1        0.0000
     82 H           1.6098    0.3575    7.4653 H       1  UNL1        0.0000
@<TRIPOS>BOND
     1    29    28    1
     2    35    32    1
     3    20    19    1
     4    31    28    1
     5    33    32    1
     6    28    30    1
     7    28    26    1
     8    32    34    1
     9    32    26    1
    10    22    21    1
    11    19    21   ar
    12    19    18   ar
    13    26    18    1
    14    26    27    1
    15    21    23   ar
    16    12    11    1
    17    18    17   ar
    18    10     9    1
    19    11     9   ar
    20    11    13   ar
    21     9     7   ar
    22    14    13    1
    23    23    24    1
    24    23    25   ar
    25    13    15   ar
    26    17    25   ar
    27    17     2    1
    28     7     8    1
    29     7     6   ar
    30    15     6   ar
    31    15    16    1
    32    25    36    1
    33     6     5    1
    34    70    67    1
    35    68    67    1
    36     2     5    1
    37     2     1    1
    38     5     3    1
    39    67    69    1
    40    67    65    1
    41    66    65    1
    42    39    38    1
    43    36    38    1
    44    36    42    1
    45    36    37    1
    46    45    42    1
    47    43    42    1
    48     1     3    1
    49     1     4    1
    50     3    46    1
    51    41    38    1
    52    65    54    1
    53    65    71    1
    54    38    40    1
    55    60    57    1
    56    42    44    1
    57    72    71    1
    58    46    54   ar
    59    46    47   ar
    60    76    75    1
    61    54    52   ar
    62    71    74    1
    63    71    73    1
    64    56    55    1
    65    58    57    1
    66    57    55    1
    67    57    59    1
    68     4    75    1
    69     4    79    1
    70    55    47    1
    71    55    61    1
    72    47    48   ar
    73    75    77    1
    74    75    78    1
    75    52    53    1
    76    52    50   ar
    77    48    50   ar
    78    48    49    1
    79    50    51    1
    80    82    79    1
    81    79    81    1
    82    79    80    1
    83    62    61    1
    84    61    63    1
    85    61    64    1
