@<TRIPOS>MOLECULE
2
 43 46 0 0 0
SMALL
GASTEIGER

@<TRIPOS>ATOM
      1 SI          8.6245    5.0554    2.2319 Si      1  UNL1        0.0000
      2 SI          7.7281    3.3210    0.8803 Si      1  UNL1        0.0000
      3 C           7.2765    6.1017    3.0636 C.ar    1  UNL1        0.0000
      4 C           6.2865    6.7139    2.2988 C.ar    1  UNL1        0.0000
      5 C           5.2821    7.4603    2.8880 C.ar    1  UNL1        0.0000
      6 C           5.2430    7.6016    4.2655 C.ar    1  UNL1        0.0000
      7 C           6.2153    6.9964    5.0432 C.ar    1  UNL1        0.0000
      8 C           7.2199    6.2568    4.4447 C.ar    1  UNL1        0.0000
      9 C           9.7231    6.2182    1.2044 C.ar    1  UNL1        0.0000
     10 C           9.3436    7.5128    0.8648 C.ar    1  UNL1        0.0000
     11 C          10.1561    8.3159    0.0840 C.ar    1  UNL1        0.0000
     12 C          11.3703    7.8359   -0.3758 C.ar    1  UNL1        0.0000
     13 C          11.7679    6.5509   -0.0438 C.ar    1  UNL1        0.0000
     14 C          10.9509    5.7544    0.7360 C.ar    1  UNL1        0.0000
     15 C           9.7365    4.3837    3.6163 C.ar    1  UNL1        0.0000
     16 C          10.7857    5.1380    4.1338 C.ar    1  UNL1        0.0000
     17 C          11.5905    4.6448    5.1448 C.ar    1  UNL1        0.0000
     18 C          11.3600    3.3801    5.6600 C.ar    1  UNL1        0.0000
     19 C          10.3208    2.6152    5.1568 C.ar    1  UNL1        0.0000
     20 C           9.5210    3.1167    4.1462 C.ar    1  UNL1        0.0000
     21 C           9.2320    2.6444   -0.1139 C.3     1  UNL1        0.0000
     22 C           6.5914    4.0940   -0.4728 C.3     1  UNL1        0.0000
     23 H           6.3058    6.5994    1.2239 H       1  UNL1        0.0000
     24 H           4.5256    7.9302    2.2750 H       1  UNL1        0.0000
     25 H           4.4580    8.1809    4.7293 H       1  UNL1        0.0000
     26 H           6.1899    7.1029    6.1184 H       1  UNL1        0.0000
     27 H           7.9792    5.7911    5.0575 H       1  UNL1        0.0000
     28 H           8.4033    7.9019    1.2272 H       1  UNL1        0.0000
     29 H           9.8429    9.3198   -0.1652 H       1  UNL1        0.0000
     30 H          12.0061    8.4608   -0.9860 H       1  UNL1        0.0000
     31 H          12.7178    6.1723   -0.3937 H       1  UNL1        0.0000
     32 H          11.2709    4.7569    0.9998 H       1  UNL1        0.0000
     33 H          10.9726    6.1247    3.7340 H       1  UNL1        0.0000
     34 H          12.4006    5.2465    5.5323 H       1  UNL1        0.0000
     35 H          11.9884    2.9916    6.4484 H       1  UNL1        0.0000
     36 H          10.1367    1.6257    5.5502 H       1  UNL1        0.0000
     37 H           8.7130    2.5125    3.7520 H       1  UNL1        0.0000
     38 H           8.9365    1.8500   -0.7920 H       1  UNL1        0.0000
     39 H           9.6934    3.4288   -0.7060 H       1  UNL1        0.0000
     40 H           9.9907    2.2401    0.5483 H       1  UNL1        0.0000
     41 H           6.3405    3.3606   -1.2328 H       1  UNL1        0.0000
     42 H           5.6593    4.4657   -0.0615 H       1  UNL1        0.0000
     43 H           7.0922    4.9210   -0.9673 H       1  UNL1        0.0000
@<TRIPOS>BOND
     1    41    22    1
     2    30    12    1
     3    43    22    1
     4    38    21    1
     5    39    21    1
     6    22    42    1
     7    22     2    1
     8    31    13    1
     9    12    13   ar
    10    12    11   ar
    11    29    11    1
    12    21    40    1
    13    21     2    1
    14    13    14   ar
    15    11    10   ar
    16    14    32    1
    17    14     9   ar
    18    10     9   ar
    19    10    28    1
    20     2     1    1
    21     9     1    1
    22    23     4    1
    23     1     3    1
    24     1    15    1
    25    24     5    1
    26     4     5   ar
    27     4     3   ar
    28     5     6   ar
    29     3     8   ar
    30    15    16   ar
    31    15    20   ar
    32    33    16    1
    33    37    20    1
    34    16    17   ar
    35    20    19   ar
    36     6    25    1
    37     6     7   ar
    38     8     7   ar
    39     8    27    1
    40     7    26    1
    41    17    34    1
    42    17    18   ar
    43    19    36    1
    44    19    18   ar
    45    18    35    1
    46     1    14    0
