@<TRIPOS>MOLECULE
2
 42 43 0 0 0
SMALL
GASTEIGER

@<TRIPOS>ATOM
      1 CL          3.1123    0.2494    9.2939 Cl      1  UNL1        0.0000
      2 SI          2.3393    2.0387    8.6307 Si      1  UNL1        0.0000
      3 N           2.3122    1.6959    6.8030 N.3     1  UNL1        0.0000
      4 C           3.3938    2.4239    6.5999 C.3     1  UNL1        0.0000
      5 N           3.8531    2.7285    7.7990 N.3     1  UNL1        0.0000
      6 C           3.9557    2.8337    5.3054 C.ar    1  UNL1        0.0000
      7 C           4.9067    2.0480    4.6631 C.ar    1  UNL1        0.0000
      8 H           5.2354    1.1269    5.1219 H       1  UNL1        0.0000
      9 C           5.4259    2.4490    3.4444 C.ar    1  UNL1        0.0000
     10 H           6.1639    1.8355    2.9497 H       1  UNL1        0.0000
     11 C           5.0008    3.6316    2.8622 C.ar    1  UNL1        0.0000
     12 H           5.4077    3.9421    1.9118 H       1  UNL1        0.0000
     13 C           4.0537    4.4157    3.5003 C.ar    1  UNL1        0.0000
     14 H           3.7202    5.3380    3.0491 H       1  UNL1        0.0000
     15 C           1.3620    1.1245    5.8734 C.3     1  UNL1        0.0000
     16 C           3.5295    4.0216    4.7188 C.ar    1  UNL1        0.0000
     17 H           2.7898    4.6281    5.2203 H       1  UNL1        0.0000
     18 C           0.6893    2.2171    5.0349 C.3     1  UNL1        0.0000
     19 H           1.3914    2.6612    4.3339 H       1  UNL1        0.0000
     20 H           0.3019    2.9962    5.6872 H       1  UNL1        0.0000
     21 H          -0.1366    1.7914    4.4712 H       1  UNL1        0.0000
     22 C           0.3036    0.4126    6.7172 C.3     1  UNL1        0.0000
     23 H          -0.4246   -0.0726    6.0734 H       1  UNL1        0.0000
     24 H          -0.2093    1.1315    7.3520 H       1  UNL1        0.0000
     25 H           0.7691   -0.3390    7.3487 H       1  UNL1        0.0000
     26 C           2.0614    0.1057    4.9646 C.3     1  UNL1        0.0000
     27 H           1.3246   -0.4086    4.3535 H       1  UNL1        0.0000
     28 H           2.5888   -0.6295    5.5682 H       1  UNL1        0.0000
     29 H           2.7733    0.5961    4.3056 H       1  UNL1        0.0000
     30 C           4.9617    3.5638    8.2084 C.3     1  UNL1        0.0000
     31 C           4.7652    5.0058    7.7277 C.3     1  UNL1        0.0000
     32 H           4.8578    5.0739    6.6468 H       1  UNL1        0.0000
     33 H           5.5155    5.6497    8.1788 H       1  UNL1        0.0000
     34 H           3.7793    5.3594    8.0202 H       1  UNL1        0.0000
     35 C           4.9815    3.5404    9.7376 C.3     1  UNL1        0.0000
     36 H           5.0709    2.5189   10.0968 H       1  UNL1        0.0000
     37 H           4.0597    3.9673   10.1264 H       1  UNL1        0.0000
     38 H           5.8226    4.1182   10.1107 H       1  UNL1        0.0000
     39 C           6.2811    2.9942    7.6722 C.3     1  UNL1        0.0000
     40 H           6.3254    3.0667    6.5884 H       1  UNL1        0.0000
     41 H           6.3785    1.9496    7.9596 H       1  UNL1        0.0000
     42 H           7.1174    3.5496    8.0886 H       1  UNL1        0.0000
@<TRIPOS>BOND
     1    12    11    1
     2    11     9   ar
     3    11    13   ar
     4    10     9    1
     5    14    13    1
     6     9     7   ar
     7    13    16   ar
     8    29    26    1
     9    19    18    1
    10    27    26    1
    11    21    18    1
    12     7     8    1
    13     7     6   ar
    14    16    17    1
    15    16     6   ar
    16    26    28    1
    17    26    15    1
    18    18    20    1
    19    18    15    1
    20     6     4    1
    21    15    22    1
    22    15     3    1
    23    23    22    1
    24    40    39    1
    25     4     3    1
    26     4     5    1
    27    32    31    1
    28    22    25    1
    29    22    24    1
    30     3     2    1
    31    39    41    1
    32    39    42    1
    33    39    30    1
    34    31    34    1
    35    31    33    1
    36    31    30    1
    37     5    30    1
    38     5     2    1
    39    30    35    1
    40     2     1    1
    41    35    36    1
    42    35    38    1
    43    35    37    1
