@<TRIPOS>MOLECULE
1
 4 3 0 0 0
SMALL
GASTEIGER

@<TRIPOS>ATOM
      1 SI          3.1819    4.1855    0.4391 Si      1  UNL1        0.0000
      2 CL          4.5629    4.7700    1.8466 Cl      1  UNL1        0.0000
      3 CL          1.6239    5.5151    0.6805 Cl      1  UNL1        0.0000
      4 CL          4.0548    4.8101   -1.3357 Cl      1  UNL1        0.0000
@<TRIPOS>BOND
     1     4     1    1
     2     1     3    1
     3     1     2    1
