@<TRIPOS>MOLECULE
1
 4 3 0 0 0
SMALL
GASTEIGER

@<TRIPOS>ATOM
      1 SI          0.9751   -1.3994    3.9654 Si      1  UNL1        0.0000
      2 CL          0.9673   -1.5439    6.0192 Cl      1  UNL1        0.0000
      3 CL          1.2690   -3.3281    3.3117 Cl      1  UNL1        0.0000
      4 CL         -0.9749   -1.0045    3.4559 Cl      1  UNL1        0.0000
@<TRIPOS>BOND
     1     3     1    1
     2     4     1    1
     3     1     2    1
