@<TRIPOS>MOLECULE
1
 4 3 0 0 0
SMALL
GASTEIGER

@<TRIPOS>ATOM
      1 SI          4.3583    1.6793    3.9191 Si      1  UNL1        0.0000
      2 CL          4.1257    3.6538    3.4017 Cl      1  UNL1        0.0000
      3 CL          6.2395    1.2075    3.2290 Cl      1  UNL1        0.0000
      4 CL          4.5493    1.6881    5.9693 Cl      1  UNL1        0.0000
@<TRIPOS>BOND
     1     3     1    1
     2     2     1    1
     3     1     4    1
