@<TRIPOS>MOLECULE
1
 28 28 0 0 0
SMALL
GASTEIGER

@<TRIPOS>ATOM
      1 SI          1.1578    1.9965  -10.3500 Si      1  UNL1        0.0000
      2 C           2.0665    0.4539  -11.0805 C.3     1  UNL1        0.0000
      3 H           1.4392   -0.4259  -10.9827 H       1  UNL1        0.0000
      4 H           2.9932    0.2432  -10.5553 H       1  UNL1        0.0000
      5 H           2.2939    0.5708  -12.1374 H       1  UNL1        0.0000
      6 C          -0.3419    2.1255  -11.5747 C.3     1  UNL1        0.0000
      7 H          -1.0451    2.9020  -11.2934 H       1  UNL1        0.0000
      8 H          -0.8912    1.1899  -11.5965 H       1  UNL1        0.0000
      9 H          -0.0112    2.3279  -12.5905 H       1  UNL1        0.0000
     10 N           2.1596    3.3680  -11.1672 N.pl3   1  UNL1        0.0000
     11 C           3.4699    3.2514  -11.3823 C.3     1  UNL1        0.0000
     12 H           3.8769    2.2593  -11.3096 H       1  UNL1        0.0000
     13 C           4.2714    4.3083  -11.7389 C.2     1  UNL1        0.0000
     14 H           5.3181    4.1219  -11.8994 H       1  UNL1        0.0000
     15 C           3.7344    5.6036  -11.8224 C.2     1  UNL1        0.0000
     16 C           2.3396    5.6992  -11.6085 C.2     1  UNL1        0.0000
     17 H           1.8274    6.6432  -11.6665 H       1  UNL1        0.0000
     18 C           1.6214    4.5854  -11.2847 C.2     1  UNL1        0.0000
     19 H           0.5628    4.6481  -11.0975 H       1  UNL1        0.0000
     20 N           4.4940    6.6849  -12.1072 N.pl3   1  UNL1        0.0000
     21 C           5.9302    6.5573  -12.1872 C.3     1  UNL1        0.0000
     22 H           6.3340    6.1058  -11.2773 H       1  UNL1        0.0000
     23 H           6.3776    7.5401  -12.3103 H       1  UNL1        0.0000
     24 H           6.2188    5.9406  -13.0429 H       1  UNL1        0.0000
     25 C           3.9055    8.0029  -12.1423 C.3     1  UNL1        0.0000
     26 H           3.1176    8.0527  -12.8975 H       1  UNL1        0.0000
     27 H           4.6672    8.7336  -12.4018 H       1  UNL1        0.0000
     28 H           3.4803    8.2755  -11.1720 H       1  UNL1        0.0000
@<TRIPOS>BOND
     1    24    21    1
     2    26    25    1
     3     9     6    1
     4    27    25    1
     5    23    21    1
     6    21    20    1
     7    21    22    1
     8    25    20    1
     9    25    28    1
    10     5     2    1
    11    20    15    1
    12    14    13    1
    13    15    13    2
    14    15    16    1
    15    13    11    1
    16    17    16    1
    17    16    18    2
    18     8     6    1
    19     6     7    1
    20     6     1    1
    21    11    12    1
    22    11    10    1
    23    18    10    1
    24    18    19    1
    25    10     1    1
    26     2     3    1
    27     2     4    1
    28     2     1    1
