@<TRIPOS>MOLECULE
1
 23 23 0 0 0
SMALL
GASTEIGER

@<TRIPOS>ATOM
      1 SI          1.2605    1.7693   12.0892 Si      1  UNL1        0.0000
      2 C          -0.5474    2.4196   11.8876 C.3     1  UNL1        0.0000
      3 H          -1.2349    1.5934   11.7361 H       1  UNL1        0.0000
      4 H          -0.6174    3.0628   11.0168 H       1  UNL1        0.0000
      5 H          -0.8987    2.9851   12.7434 H       1  UNL1        0.0000
      6 C           1.3529    0.4476   10.6839 C.3     1  UNL1        0.0000
      7 H           0.5327   -0.2606   10.7587 H       1  UNL1        0.0000
      8 H           2.2775   -0.1169   10.7304 H       1  UNL1        0.0000
      9 H           1.3022    0.9151    9.7061 H       1  UNL1        0.0000
     10 C           1.2745    0.6426   13.6415 C.ar    1  UNL1        0.0000
     11 C           2.4484    0.0119   14.0421 C.ar    1  UNL1        0.0000
     12 H           3.3546    0.1865   13.4823 H       1  UNL1        0.0000
     13 C           2.4814   -0.8320   15.1363 C.ar    1  UNL1        0.0000
     14 H           3.4103   -1.3076   15.4225 H       1  UNL1        0.0000
     15 C           1.3331   -1.0780   15.8794 C.ar    1  UNL1        0.0000
     16 C           0.1555   -0.4571   15.4869 C.ar    1  UNL1        0.0000
     17 H          -0.7525   -0.6350   16.0481 H       1  UNL1        0.0000
     18 C           0.1306    0.3844   14.3887 C.ar    1  UNL1        0.0000
     19 H          -0.8009    0.8521   14.1083 H       1  UNL1        0.0000
     20 C           1.3662   -2.0081   17.0553 C.3     1  UNL1        0.0000
     21 H           1.2970   -3.0422   16.7150 H       1  UNL1        0.0000
     22 H           0.5324   -1.8167   17.7272 H       1  UNL1        0.0000
     23 H           2.2976   -1.9006   17.6083 H       1  UNL1        0.0000
@<TRIPOS>BOND
     1     9     6    1
     2     6     8    1
     3     6     7    1
     4     6     1    1
     5     4     2    1
     6     3     2    1
     7     2     1    1
     8     2     5    1
     9     1    10    1
    10    12    11    1
    11    10    11   ar
    12    10    18   ar
    13    11    13   ar
    14    19    18    1
    15    18    16   ar
    16    13    14    1
    17    13    15   ar
    18    16    15   ar
    19    16    17    1
    20    15    20    1
    21    21    20    1
    22    20    23    1
    23    20    22    1
