@<TRIPOS>MOLECULE
1
 68 70 0 0 0
SMALL
GASTEIGER

@<TRIPOS>ATOM
      1 SI         11.5398    0.7268    7.2255 Si      1  UNL1        0.0000
      2 C          11.5375    6.6733   10.9254 C.3     1  UNL1        0.0000
      3 H          11.6456    7.6807   11.3237 H       1  UNL1        0.0000
      4 H          12.5237    6.2152   10.8938 H       1  UNL1        0.0000
      5 H          10.9195    6.1097   11.6155 H       1  UNL1        0.0000
      6 C          10.6357    0.6972   11.0750 C.3     1  UNL1        0.0000
      7 H          11.3598    1.3571   10.6091 H       1  UNL1        0.0000
      8 H          11.1048   -0.2741   11.2259 H       1  UNL1        0.0000
      9 H          10.3746    1.0955   12.0552 H       1  UNL1        0.0000
     10 N          10.7126    3.0881    8.3924 N.2     1  UNL1        0.0000
     11 C          13.3187   -0.2192    9.2743 C.ar    1  UNL1        0.0000
     12 C          14.0330    1.0821    9.0687 C.3     1  UNL1        0.0000
     13 H          13.3385    1.9203    9.0810 H       1  UNL1        0.0000
     14 H          14.5286    1.0725    8.0975 H       1  UNL1        0.0000
     15 H          14.7872    1.2391    9.8366 H       1  UNL1        0.0000
     16 C           9.2773    1.1170    8.9657 C.ar    1  UNL1        0.0000
     17 C          10.4050    1.8637    8.3438 C.2     1  UNL1        0.0000
     18 C          10.0306    4.1764    9.0973 C.3     1  UNL1        0.0000
     19 C          12.1755   -0.5126    8.5231 C.ar    1  UNL1        0.0000
     20 C          13.8012   -1.1392   10.1893 C.ar    1  UNL1        0.0000
     21 H          14.6818   -0.9025   10.7706 H       1  UNL1        0.0000
     22 C          13.1762   -2.3652   10.3736 C.ar    1  UNL1        0.0000
     23 C           7.9704    1.3992    6.8102 C.3     1  UNL1        0.0000
     24 H           7.0089    1.8977    6.6924 H       1  UNL1        0.0000
     25 H           7.9997    0.5684    6.1056 H       1  UNL1        0.0000
     26 H           8.7631    2.0934    6.5508 H       1  UNL1        0.0000
     27 C           7.1966   -0.4395   10.0166 C.ar    1  UNL1        0.0000
     28 C          10.3811   -2.1322    7.8341 C.3     1  UNL1        0.0000
     29 H          10.6593   -2.1257    6.7794 H       1  UNL1        0.0000
     30 H           9.5635   -1.4269    7.9701 H       1  UNL1        0.0000
     31 H          10.0217   -3.1253    8.0929 H       1  UNL1        0.0000
     32 C           9.4040    0.5377   10.2319 C.ar    1  UNL1        0.0000
     33 C           8.1247    0.8773    8.2084 C.ar    1  UNL1        0.0000
     34 C          10.9267    6.7341    9.5215 C.3     1  UNL1        0.0000
     35 C          11.5621   -1.7595    8.6753 C.ar    1  UNL1        0.0000
     36 C          10.9797    5.3682    8.8016 C.3     1  UNL1        0.0000
     37 H          10.8759    5.5644    7.7317 H       1  UNL1        0.0000
     38 H          11.9918    4.9823    8.9513 H       1  UNL1        0.0000
     39 C          13.7172   -3.3508   11.3641 C.3     1  UNL1        0.0000
     40 H          14.0179   -2.8502   12.2827 H       1  UNL1        0.0000
     41 H          14.5959   -3.8469   10.9515 H       1  UNL1        0.0000
     42 H          12.9776   -4.1114   11.6017 H       1  UNL1        0.0000
     43 C           8.3594   -0.2235   10.7378 C.ar    1  UNL1        0.0000
     44 H           8.4670   -0.6606   11.7206 H       1  UNL1        0.0000
     45 C           8.6384    4.3766    8.4869 C.3     1  UNL1        0.0000
     46 H           8.7091    4.5898    7.4226 H       1  UNL1        0.0000
     47 H           8.1235    5.1982    8.9715 H       1  UNL1        0.0000
     48 H           8.0449    3.4766    8.6252 H       1  UNL1        0.0000
     49 C           9.8741    3.8851   10.5891 C.3     1  UNL1        0.0000
     50 H           9.2662    2.9963   10.7308 H       1  UNL1        0.0000
     51 H           9.3699    4.7128   11.0783 H       1  UNL1        0.0000
     52 H          10.8441    3.7317   11.0549 H       1  UNL1        0.0000
     53 C           7.0991    0.1176    8.7500 C.ar    1  UNL1        0.0000
     54 H           6.2086   -0.0509    8.1607 H       1  UNL1        0.0000
     55 C           6.0850   -1.2794   10.5676 C.3     1  UNL1        0.0000
     56 H           6.1259   -2.2800   10.1360 H       1  UNL1        0.0000
     57 H           5.1167   -0.8489   10.3203 H       1  UNL1        0.0000
     58 H           6.1654   -1.3715   11.6480 H       1  UNL1        0.0000
     59 C           9.5257    7.3409    9.6006 C.3     1  UNL1        0.0000
     60 H           8.8874    6.7879   10.2843 H       1  UNL1        0.0000
     61 H           9.0589    7.3625    8.6189 H       1  UNL1        0.0000
     62 H           9.5910    8.3642    9.9667 H       1  UNL1        0.0000
     63 C          12.0627   -2.6617    9.6018 C.ar    1  UNL1        0.0000
     64 H          11.5768   -3.6201    9.7219 H       1  UNL1        0.0000
     65 C          11.8013    7.6803    8.6826 C.3     1  UNL1        0.0000
     66 H          11.8733    8.6561    9.1581 H       1  UNL1        0.0000
     67 H          11.3795    7.8183    7.6893 H       1  UNL1        0.0000
     68 H          12.8067    7.2791    8.5749 H       1  UNL1        0.0000
@<TRIPOS>BOND
     1    25    23    1
     2    26    23    1
     3    24    23    1
     4    29    28    1
     5    23    33    1
     6     1    17    1
     7     1    19    1
     8    46    45    1
     9    67    65    1
    10    37    36    1
    11    28    30    1
    12    28    31    1
    13    28    35    1
    14    14    12    1
    15    54    53    1
    16    33    53   ar
    17    33    16   ar
    18    17    10    2
    19    17    16    1
    20    10    18    1
    21    45    48    1
    22    45    47    1
    23    45    18    1
    24    19    35   ar
    25    19    11   ar
    26    68    65    1
    27    61    59    1
    28    35    63   ar
    29    65    66    1
    30    65    34    1
    31    53    27   ar
    32    36    38    1
    33    36    18    1
    34    36    34    1
    35    16    32   ar
    36    12    13    1
    37    12    11    1
    38    12    15    1
    39    18    49    1
    40    11    20   ar
    41    34    59    1
    42    34     2    1
    43    59    62    1
    44    59    60    1
    45    63    64    1
    46    63    22   ar
    47    27    55    1
    48    27    43   ar
    49    56    55    1
    50    20    22   ar
    51    20    21    1
    52    32    43   ar
    53    32     6    1
    54    57    55    1
    55    22    39    1
    56    55    58    1
    57    49    50    1
    58    49    52    1
    59    49    51    1
    60     7     6    1
    61    43    44    1
    62     4     2    1
    63     2     3    1
    64     2     5    1
    65    41    39    1
    66     6     8    1
    67     6     9    1
    68    39    42    1
    69    39    40    1
    70     1    10    0
