@<TRIPOS>MOLECULE
1
 13 12 0 0 0
SMALL
GASTEIGER

@<TRIPOS>ATOM
      1 SI         12.4244   -1.3423    3.3194 Si      1  UNL1        0.0000
      2 C          11.9154   -3.0047    4.1464 C.3     1  UNL1        0.0000
      3 H          10.8597   -3.0149    4.4004 H       1  UNL1        0.0000
      4 H          12.4770   -3.1865    5.0584 H       1  UNL1        0.0000
      5 H          12.0947   -3.8425    3.4790 H       1  UNL1        0.0000
      6 C          11.3105   -1.3036    1.7511 C.3     1  UNL1        0.0000
      7 H          11.2860   -2.2894    1.2975 H       1  UNL1        0.0000
      8 H          11.6653   -0.6140    0.9929 H       1  UNL1        0.0000
      9 H          10.2897   -1.0329    1.9988 H       1  UNL1        0.0000
     10 C          14.2044   -1.6881    2.6706 C.3     1  UNL1        0.0000
     11 H          14.9630   -1.2399    3.3043 H       1  UNL1        0.0000
     12 H          14.3500   -1.3237    1.6598 H       1  UNL1        0.0000
     13 H          14.3911   -2.7566    2.6586 H       1  UNL1        0.0000
@<TRIPOS>BOND
     1     8     6    1
     2     7     6    1
     3    12    10    1
     4     6     9    1
     5     6     1    1
     6    13    10    1
     7    10    11    1
     8    10     1    1
     9     1     2    1
    10     5     2    1
    11     2     3    1
    12     2     4    1
