@<TRIPOS>MOLECULE
2
 24 25 0 0 0
SMALL
GASTEIGER

@<TRIPOS>ATOM
      1 CL          6.1718    1.8071   14.1325 Cl      1  UNL1        0.0000
      2 SI          6.0577    2.0671   11.9766 Si      1  UNL1        0.0000
      3 C           4.4138    1.0768   11.7224 C.ar    1  UNL1        0.0000
      4 C           3.5302    1.4538   10.7155 C.ar    1  UNL1        0.0000
      5 H           3.7734    2.3018   10.0921 H       1  UNL1        0.0000
      6 C           4.0587   -0.0035   12.5240 C.ar    1  UNL1        0.0000
      7 H           4.7175   -0.3112   13.3233 H       1  UNL1        0.0000
      8 C           5.2782    3.8308   11.8705 C.ar    1  UNL1        0.0000
      9 C           2.3435    0.7748   10.5098 C.ar    1  UNL1        0.0000
     10 H           1.6723    1.0888    9.7224 H       1  UNL1        0.0000
     11 C           5.4858    4.5974   10.7284 C.ar    1  UNL1        0.0000
     12 H           6.1161    4.1993    9.9430 H       1  UNL1        0.0000
     13 C           4.4630    4.3562   12.8670 C.ar    1  UNL1        0.0000
     14 H           4.2809    3.7804   13.7625 H       1  UNL1        0.0000
     15 C           3.8871    5.6073   12.7351 C.ar    1  UNL1        0.0000
     16 H           3.2595    5.9977   13.5241 H       1  UNL1        0.0000
     17 C           4.9115    5.8469   10.5860 C.ar    1  UNL1        0.0000
     18 H           5.0878    6.4250    9.6891 H       1  UNL1        0.0000
     19 C           2.8701   -0.6850   12.3292 C.ar    1  UNL1        0.0000
     20 H           2.6144   -1.5169   12.9708 H       1  UNL1        0.0000
     21 C           2.0094   -0.3007   11.3161 C.ar    1  UNL1        0.0000
     22 H           1.0802   -0.8304   11.1606 H       1  UNL1        0.0000
     23 C           4.1100    6.3575   11.5933 C.ar    1  UNL1        0.0000
     24 H           3.6602    7.3348   11.4878 H       1  UNL1        0.0000
@<TRIPOS>BOND
     1    18    17    1
     2    10     9    1
     3    12    11    1
     4     5     4    1
     5     9     4   ar
     6     9    21   ar
     7    17    11   ar
     8    17    23   ar
     9     4     3   ar
    10    11     8   ar
    11    22    21    1
    12    21    19   ar
    13    24    23    1
    14    23    15   ar
    15     3     2    1
    16     3     6   ar
    17     8     2    1
    18     8    13   ar
    19     2     1    1
    20    19     6   ar
    21    19    20    1
    22     6     7    1
    23    15    13   ar
    24    15    16    1
    25    13    14    1
