@<TRIPOS>MOLECULE
1
 39 40 0 0 0
SMALL
GASTEIGER

@<TRIPOS>ATOM
      1 SI          2.1174   13.8294   12.3402 Si      1  UNL1        0.0000
      2 SI         -0.0724   13.0954    9.7867 Si      1  UNL1        0.0000
      3 C           2.1516   11.9171   12.6317 C.ar    1  UNL1        0.0000
      4 C           0.4428   14.0653   11.3472 C.3     1  UNL1        0.0000
      5 C           2.3076   10.9973   11.6002 C.ar    1  UNL1        0.0000
      6 C           2.0081   11.4067   13.9168 C.ar    1  UNL1        0.0000
      7 C           2.0367   10.0475   14.1725 C.ar    1  UNL1        0.0000
      8 C           3.3397   14.1067   10.8568 C.ar    1  UNL1        0.0000
      9 C           2.2149    9.1524   13.1318 C.ar    1  UNL1        0.0000
     10 C           4.3280   13.1964   10.4938 C.ar    1  UNL1        0.0000
     11 C           2.3462    9.6345   11.8410 C.ar    1  UNL1        0.0000
     12 C           3.2474   15.2705   10.0991 C.ar    1  UNL1        0.0000
     13 C           4.0833   15.5144    9.0248 C.ar    1  UNL1        0.0000
     14 C           5.1649   13.4218    9.4139 C.ar    1  UNL1        0.0000
     15 C          -0.7644   11.3750   10.2354 C.3     1  UNL1        0.0000
     16 C          -1.5259   14.0860    9.0142 C.3     1  UNL1        0.0000
     17 C           1.2502   12.9841    8.4155 C.3     1  UNL1        0.0000
     18 C           5.0461   14.5844    8.6723 C.ar    1  UNL1        0.0000
     19 H           1.8708   12.1015   14.7353 H       1  UNL1        0.0000
     20 H           1.9219    9.6837   15.1846 H       1  UNL1        0.0000
     21 H           2.2453    8.0888   13.3235 H       1  UNL1        0.0000
     22 H           2.4740    8.9451   11.0172 H       1  UNL1        0.0000
     23 H           2.3936   11.3514   10.5856 H       1  UNL1        0.0000
     24 H           2.4932   16.0059   10.3453 H       1  UNL1        0.0000
     25 H           3.9809   16.4283    8.4543 H       1  UNL1        0.0000
     26 H           5.6963   14.7635    7.8276 H       1  UNL1        0.0000
     27 H           5.9137   12.6871    9.1498 H       1  UNL1        0.0000
     28 H           4.4448   12.2883   11.0648 H       1  UNL1        0.0000
     29 H          -0.0916   10.8281   10.8857 H       1  UNL1        0.0000
     30 H          -1.7151   11.4655   10.7521 H       1  UNL1        0.0000
     31 H          -0.9316   10.7729    9.3471 H       1  UNL1        0.0000
     32 H          -2.3333   14.2283    9.7267 H       1  UNL1        0.0000
     33 H          -1.2052   15.0700    8.6849 H       1  UNL1        0.0000
     34 H          -1.9416   13.5750    8.1510 H       1  UNL1        0.0000
     35 H           1.5643   13.9731    8.0968 H       1  UNL1        0.0000
     36 H           2.1419   12.4587    8.7370 H       1  UNL1        0.0000
     37 H           0.8585   12.4666    7.5442 H       1  UNL1        0.0000
     38 H          -0.3647   13.9355   12.0664 H       1  UNL1        0.0000
     39 H           0.4250   15.1153   11.0563 H       1  UNL1        0.0000
@<TRIPOS>BOND
     1    37    17    1
     2    26    18    1
     3    35    17    1
     4    34    16    1
     5    17    36    1
     6    17     2    1
     7    25    13    1
     8    18    13   ar
     9    18    14   ar
    10    33    16    1
    11    16    32    1
    12    16     2    1
    13    13    12   ar
    14    27    14    1
    15    31    15    1
    16    14    10   ar
    17     2    15    1
    18     2     4    1
    19    12    24    1
    20    12     8   ar
    21    15    30    1
    22    15    29    1
    23    10     8   ar
    24    10    28    1
    25    23     5    1
    26     8     1    1
    27    22    11    1
    28    39     4    1
    29     4    38    1
    30     4     1    1
    31     5    11   ar
    32     5     3   ar
    33    11     9   ar
    34     1     3    1
    35     3     6   ar
    36     9    21    1
    37     9     7   ar
    38     6     7   ar
    39     6    19    1
    40     7    20    1
