@<TRIPOS>MOLECULE
2
 4 3 0 0 0
SMALL
GASTEIGER

@<TRIPOS>ATOM
      1 CL          1.0178   12.4595   15.2879 Cl      1  UNL1        0.0000
      2 SI         -0.2444   11.2692   14.0915 Si      1  UNL1        0.0000
      3 CL         -1.1500   12.7753   12.9237 Cl      1  UNL1        0.0000
      4 CL         -1.8271   10.9509   15.5132 Cl      1  UNL1        0.0000
@<TRIPOS>BOND
     1     3     2    1
     2     2     1    1
     3     2     4    1
