@<TRIPOS>MOLECULE
1
 10 9 0 0 0
SMALL
GASTEIGER

@<TRIPOS>ATOM
      1 SI          0.4966    6.6007    4.8508 Si      1  UNL1        0.0000
      2 CL         -1.0159    7.9612    5.2789 Cl      1  UNL1        0.0000
      3 C           0.4002    6.3906    2.9432 C.3     1  UNL1        0.0000
      4 H          -0.5512    5.9655    2.6391 H       1  UNL1        0.0000
      5 H           0.5110    7.3463    2.4394 H       1  UNL1        0.0000
      6 H           1.1856    5.7319    2.5879 H       1  UNL1        0.0000
      7 C           2.1259    7.5729    5.1714 C.3     1  UNL1        0.0000
      8 H           2.1715    7.9771    6.1777 H       1  UNL1        0.0000
      9 H           2.9893    6.9315    5.0274 H       1  UNL1        0.0000
     10 H           2.2124    8.4072    4.4817 H       1  UNL1        0.0000
@<TRIPOS>BOND
     1     5     3    1
     2     6     3    1
     3     4     3    1
     4     3     1    1
     5    10     7    1
     6     1     7    1
     7     1     2    1
     8     9     7    1
     9     7     8    1
