@<TRIPOS>MOLECULE
1
 14 14 0 0 0
SMALL
GASTEIGER

@<TRIPOS>ATOM
      1 SI         -8.0365    0.9061   -3.0740 Si      1  UNL1        0.0000
      2 C          -7.5603    2.6029   -2.3529 C.ar    1  UNL1        0.0000
      3 C          -6.7505    3.4644   -3.0922 C.ar    1  UNL1        0.0000
      4 H          -6.4381    3.1698   -4.0878 H       1  UNL1        0.0000
      5 C          -6.3445    4.6836   -2.5806 C.ar    1  UNL1        0.0000
      6 H          -5.7195    5.3363   -3.1740 H       1  UNL1        0.0000
      7 C          -6.7340    5.0666   -1.3070 C.ar    1  UNL1        0.0000
      8 H          -6.4124    6.0154   -0.9017 H       1  UNL1        0.0000
      9 C          -7.5377    4.2256   -0.5571 C.ar    1  UNL1        0.0000
     10 H          -7.8474    4.5178    0.4368 H       1  UNL1        0.0000
     11 C          -7.9457    3.0106   -1.0801 C.ar    1  UNL1        0.0000
     12 H          -8.5788    2.3636   -0.4886 H       1  UNL1        0.0000
     13 H          -8.8078    0.2390   -1.9870 H       1  UNL1        0.0000
     14 H          -9.1206    1.1889   -4.0499 H       1  UNL1        0.0000
@<TRIPOS>BOND
     1     4     3    1
     2    14     1    1
     3     6     5    1
     4     3     5   ar
     5     3     2   ar
     6     1     2    1
     7     1    13    1
     8     5     7   ar
     9     2    11   ar
    10     7     8    1
    11     7     9   ar
    12    11     9   ar
    13    11    12    1
    14     9    10    1
