@<TRIPOS>MOLECULE
1
 27 27 0 0 0
SMALL
GASTEIGER

@<TRIPOS>ATOM
      1 SI          8.0389   12.4409   11.8937 Si      1  UNL1        0.0000
      2 SI          8.3235   10.6503   10.3558 Si      1  UNL1        0.0000
      3 SI          5.6907   12.4190   12.2771 Si      1  UNL1        0.0000
      4 C          10.0879    9.9082   10.3493 C.3     1  UNL1        0.0000
      5 H          10.3457    9.5207   11.3297 H       1  UNL1        0.0000
      6 H          10.8362   10.6458   10.0803 H       1  UNL1        0.0000
      7 H          10.1743    9.0875    9.6426 H       1  UNL1        0.0000
      8 C           8.0287   11.2345    8.5451 C.3     1  UNL1        0.0000
      9 H           7.9497   10.3959    7.8588 H       1  UNL1        0.0000
     10 H           8.8418   11.8624    8.1915 H       1  UNL1        0.0000
     11 H           7.1116   11.8093    8.4622 H       1  UNL1        0.0000
     12 C           7.1681    9.1399   10.6061 C.3     1  UNL1        0.0000
     13 H           6.1277    9.4134   10.4636 H       1  UNL1        0.0000
     14 H           7.2701    8.7441   11.6120 H       1  UNL1        0.0000
     15 H           7.3922    8.3333    9.9130 H       1  UNL1        0.0000
     16 C           4.9287   10.9084   13.1814 C.3     1  UNL1        0.0000
     17 H           5.2957   10.8383   14.2003 H       1  UNL1        0.0000
     18 H           5.1857    9.9823   12.6790 H       1  UNL1        0.0000
     19 H           3.8440   10.9658   13.2275 H       1  UNL1        0.0000
     20 C           4.7561   12.5264   10.5998 C.3     1  UNL1        0.0000
     21 H           4.9728   11.6596    9.9842 H       1  UNL1        0.0000
     22 H           5.0469   13.4057   10.0322 H       1  UNL1        0.0000
     23 H           3.6788   12.5703   10.7348 H       1  UNL1        0.0000
     24 C           5.0613   13.9296   13.2798 C.3     1  UNL1        0.0000
     25 H           3.9781   14.0060   13.2415 H       1  UNL1        0.0000
     26 H           5.4630   14.8648   12.9050 H       1  UNL1        0.0000
     27 H           5.3394   13.8534   14.3255 H       1  UNL1        0.0000
@<TRIPOS>BOND
     1     9     8    1
     2    10     8    1
     3    11     8    1
     4     8     2    1
     5     7     4    1
     6    15    12    1
     7    21    20    1
     8    22    20    1
     9     6     4    1
    10     4     2    1
    11     4     5    1
    12     2    12    1
    13     2     1    1
    14    13    12    1
    15    20    23    1
    16    20     3    1
    17    12    14    1
    18     1     3    1
    19     3    16    1
    20     3    24    1
    21    18    16    1
    22    26    24    1
    23    16    19    1
    24    16    17    1
    25    25    24    1
    26    24    27    1
    27     1    20    0
