@<TRIPOS>MOLECULE
1
 27 27 0 0 0
SMALL
GASTEIGER

@<TRIPOS>ATOM
      1 SI          4.2860    3.1414    0.1980 Si      1  UNL1        0.0000
      2 SI          2.7060    1.9116   -1.0976 Si      1  UNL1        0.0000
      3 SI          6.2138    1.7481   -0.0173 Si      1  UNL1        0.0000
      4 C           0.8846    2.3737   -0.7272 C.3     1  UNL1        0.0000
      5 H           0.1948    1.7968   -1.3371 H       1  UNL1        0.0000
      6 H           0.6889    3.4223   -0.9242 H       1  UNL1        0.0000
      7 H           0.6369    2.1810    0.3116 H       1  UNL1        0.0000
      8 C           2.7712    0.0005   -0.9301 C.3     1  UNL1        0.0000
      9 H           2.6834   -0.2992    0.1095 H       1  UNL1        0.0000
     10 H           3.7103   -0.3948   -1.3027 H       1  UNL1        0.0000
     11 H           1.9700   -0.4875   -1.4791 H       1  UNL1        0.0000
     12 C           2.9063    2.2620   -2.9812 C.3     1  UNL1        0.0000
     13 H           2.2635    1.6256   -3.5838 H       1  UNL1        0.0000
     14 H           3.9275    2.0956   -3.3094 H       1  UNL1        0.0000
     15 H           2.6515    3.2913   -3.2176 H       1  UNL1        0.0000
     16 C           6.1499    0.1409    1.0288 C.3     1  UNL1        0.0000
     17 H           7.0654   -0.4386    0.9440 H       1  UNL1        0.0000
     18 H           5.3292   -0.4947    0.7140 H       1  UNL1        0.0000
     19 H           6.0008    0.3655    2.0802 H       1  UNL1        0.0000
     20 C           6.5443    1.1687   -1.8229 C.3     1  UNL1        0.0000
     21 H           7.3854    0.4822   -1.8776 H       1  UNL1        0.0000
     22 H           6.7690    2.0071   -2.4758 H       1  UNL1        0.0000
     23 H           5.6808    0.6572   -2.2345 H       1  UNL1        0.0000
     24 C           7.8512    2.6228    0.4789 C.3     1  UNL1        0.0000
     25 H           8.0403    2.5391    1.5439 H       1  UNL1        0.0000
     26 H           7.8350    3.6807    0.2361 H       1  UNL1        0.0000
     27 H           8.7060    2.1873   -0.0308 H       1  UNL1        0.0000
@<TRIPOS>BOND
     1    13    12    1
     2    14    12    1
     3    15    12    1
     4    12     2    1
     5    22    20    1
     6    23    20    1
     7    21    20    1
     8    20     3    1
     9    11     8    1
    10     5     4    1
    11    10     8    1
    12     2     8    1
    13     2     4    1
    14     2     1    1
    15     8     9    1
    16     6     4    1
    17     4     7    1
    18    27    24    1
    19     3     1    1
    20     3    24    1
    21     3    16    1
    22    26    24    1
    23    24    25    1
    24    18    16    1
    25    17    16    1
    26    16    19    1
    27     1    12    0
