@<TRIPOS>MOLECULE
2
 15 14 0 0 0
SMALL
GASTEIGER

@<TRIPOS>ATOM
      1 SI          8.2055   10.1474   16.0200 Si      1  UNL1        0.0000
      2 SI          9.4584   11.2311   14.3584 Si      1  UNL1        0.0000
      3 C           6.9096   11.2954   16.8386 C.3     1  UNL1        0.0000
      4 H           6.3458   10.7689   17.6027 H       1  UNL1        0.0000
      5 H           6.1947   11.6822   16.1187 H       1  UNL1        0.0000
      6 H           7.3845   12.1458   17.3175 H       1  UNL1        0.0000
      7 C           7.2804    8.5522   15.4846 C.3     1  UNL1        0.0000
      8 H           7.9748    7.8420   15.0459 H       1  UNL1        0.0000
      9 H           6.5223    8.7670   14.7381 H       1  UNL1        0.0000
     10 H           6.7899    8.0590   16.3199 H       1  UNL1        0.0000
     11 C           9.3752    9.6149   17.4513 C.3     1  UNL1        0.0000
     12 H           9.8726   10.4743   17.8924 H       1  UNL1        0.0000
     13 H          10.1479    8.9405   17.0943 H       1  UNL1        0.0000
     14 H           8.8389    9.1062   18.2481 H       1  UNL1        0.0000
     15 H           9.9481    9.9713   13.6346 H       1  UNL1        0.0000
@<TRIPOS>BOND
     1    15     2    1
     2     2     1    1
     3     9     7    1
     4     8     7    1
     5     7     1    1
     6     7    10    1
     7     1     3    1
     8     1    11    1
     9     5     3    1
    10     3     6    1
    11     3     4    1
    12    13    11    1
    13    11    12    1
    14    11    14    1
