@<TRIPOS>MOLECULE
1
 24 25 0 0 0
SMALL
GASTEIGER

@<TRIPOS>ATOM
      1 SI          6.4553    2.8630    4.8206 Si      1  UNL1        0.0000
      2 F           7.7777    3.2969    5.7061 F       1  UNL1        0.0000
      3 C           5.1319    4.1138    5.3512 C.ar    1  UNL1        0.0000
      4 C           5.4870    5.4058    5.7252 C.ar    1  UNL1        0.0000
      5 C           4.5240    6.3394    6.0616 C.ar    1  UNL1        0.0000
      6 C           3.1832    5.9955    6.0228 C.ar    1  UNL1        0.0000
      7 C           2.8131    4.7130    5.6532 C.ar    1  UNL1        0.0000
      8 C           3.7808    3.7833    5.3197 C.ar    1  UNL1        0.0000
      9 C           5.9932    1.1381    5.4646 C.ar    1  UNL1        0.0000
     10 C           5.1592    0.3089    4.7211 C.ar    1  UNL1        0.0000
     11 C           4.8119   -0.9487    5.1784 C.ar    1  UNL1        0.0000
     12 C           5.3025   -1.4030    6.3921 C.ar    1  UNL1        0.0000
     13 C           6.1375   -0.5921    7.1418 C.ar    1  UNL1        0.0000
     14 C           6.4762    0.6678    6.6806 C.ar    1  UNL1        0.0000
     15 H           1.7682    4.4391    5.6250 H       1  UNL1        0.0000
     16 H           3.4877    2.7824    5.0380 H       1  UNL1        0.0000
     17 H           4.7845    0.6600    3.7690 H       1  UNL1        0.0000
     18 H           4.1593   -1.5781    4.5899 H       1  UNL1        0.0000
     19 H           5.0343   -2.3861    6.7511 H       1  UNL1        0.0000
     20 H           6.5321    5.6748    5.7573 H       1  UNL1        0.0000
     21 H           6.5233   -0.9426    8.0884 H       1  UNL1        0.0000
     22 H           4.8179    7.3384    6.3498 H       1  UNL1        0.0000
     23 H           7.1261    1.2994    7.2674 H       1  UNL1        0.0000
     24 H           2.4282    6.7246    6.2796 H       1  UNL1        0.0000
@<TRIPOS>BOND
     1    17    10    1
     2    18    11    1
     3    10    11   ar
     4    10     9   ar
     5     1     3    1
     6     1     9    1
     7     1     2    1
     8    16     8    1
     9    11    12   ar
    10     8     3   ar
    11     8     7   ar
    12     3     4   ar
    13     9    14   ar
    14    15     7    1
    15     7     6   ar
    16     4    20    1
    17     4     5   ar
    18     6     5   ar
    19     6    24    1
    20     5    22    1
    21    12    19    1
    22    12    13   ar
    23    14    13   ar
    24    14    23    1
    25    13    21    1
