@<TRIPOS>MOLECULE
1
 4 3 0 0 0
SMALL
GASTEIGER

@<TRIPOS>ATOM
      1 SI          4.4036    3.1281    1.3309 Si      1  UNL1        0.0000
      2 CL          4.1165    2.2726   -0.5167 Cl      1  UNL1        0.0000
      3 CL          4.6915    5.1316    0.9438 Cl      1  UNL1        0.0000
      4 CL          6.2339    2.4551    1.9823 Cl      1  UNL1        0.0000
@<TRIPOS>BOND
     1     2     1    1
     2     3     1    1
     3     1     4    1
