@<TRIPOS>MOLECULE
1
 10 9 0 0 0
SMALL
GASTEIGER

@<TRIPOS>ATOM
      1 SI         -4.8316   26.8645    6.8929 Si      1  UNL1        0.0000
      2 CL         -5.2176   24.8555    7.3882 Cl      1  UNL1        0.0000
      3 C          -2.8875   26.9042    6.8545 C.3     1  UNL1        0.0000
      4 H          -2.4856   25.9932    7.2847 H       1  UNL1        0.0000
      5 H          -2.5254   27.7373    7.4465 H       1  UNL1        0.0000
      6 H          -2.4834   27.0105    5.8540 H       1  UNL1        0.0000
      7 C          -5.1543   27.6873    8.6200 C.3     1  UNL1        0.0000
      8 H          -4.4710   27.2830    9.3620 H       1  UNL1        0.0000
      9 H          -6.1638   27.5131    8.9817 H       1  UNL1        0.0000
     10 H          -4.9972   28.7611    8.5739 H       1  UNL1        0.0000
@<TRIPOS>BOND
     1     6     3    1
     2     3     1    1
     3     3     4    1
     4     3     5    1
     5     1     2    1
     6     1     7    1
     7    10     7    1
     8     7     9    1
     9     7     8    1
