@<TRIPOS>MOLECULE
1
 14 14 0 0 0
SMALL
GASTEIGER

@<TRIPOS>ATOM
      1 SI          2.0641    7.1659   15.2637 Si      1  UNL1        0.0000
      2 C           1.3113    6.7693   13.5463 C.ar    1  UNL1        0.0000
      3 C           2.0448    6.2009   12.5107 C.ar    1  UNL1        0.0000
      4 H           3.0801    5.9370   12.6780 H       1  UNL1        0.0000
      5 C           1.4818    5.9592   11.2698 C.ar    1  UNL1        0.0000
      6 H           2.0798    5.5178   10.4836 H       1  UNL1        0.0000
      7 C           0.1562    6.2802   11.0357 C.ar    1  UNL1        0.0000
      8 H          -0.2891    6.0917   10.0686 H       1  UNL1        0.0000
      9 C          -0.5949    6.8437   12.0535 C.ar    1  UNL1        0.0000
     10 H          -1.6323    7.0974   11.8813 H       1  UNL1        0.0000
     11 C          -0.0188    7.0836   13.2879 C.ar    1  UNL1        0.0000
     12 H          -0.6122    7.5268   14.0744 H       1  UNL1        0.0000
     13 H           2.3325    8.6348   15.1371 H       1  UNL1        0.0000
     14 H           0.8223    7.2372   16.1007 H       1  UNL1        0.0000
@<TRIPOS>BOND
     1     8     7    1
     2     6     5    1
     3     7     5   ar
     4     7     9   ar
     5     5     3   ar
     6    10     9    1
     7     9    11   ar
     8     3     4    1
     9     3     2   ar
    10    11     2   ar
    11    11    12    1
    12     2     1    1
    13    13     1    1
    14     1    14    1
