@<TRIPOS>MOLECULE
1
 17 17 0 0 0
SMALL
GASTEIGER

@<TRIPOS>ATOM
      1 SI          5.6120    9.1796    5.2402 Si      1  UNL1        0.0000
      2 H           5.4711    7.6778    5.1579 H       1  UNL1        0.0000
      3 C           6.1565    9.3551    7.0808 C.ar    1  UNL1        0.0000
      4 C           5.6244   10.2938    7.9559 C.ar    1  UNL1        0.0000
      5 H           4.8565   10.9680    7.6033 H       1  UNL1        0.0000
      6 C           6.0391   10.3784    9.2735 C.ar    1  UNL1        0.0000
      7 H           5.6002   11.1168    9.9310 H       1  UNL1        0.0000
      8 C           7.0122    9.5181    9.7499 C.ar    1  UNL1        0.0000
      9 H           7.3406    9.5796   10.7781 H       1  UNL1        0.0000
     10 C           7.5601    8.5749    8.8963 C.ar    1  UNL1        0.0000
     11 H           8.3198    7.8959    9.2593 H       1  UNL1        0.0000
     12 C           7.1327    8.4988    7.5836 C.ar    1  UNL1        0.0000
     13 H           7.5578    7.7507    6.9307 H       1  UNL1        0.0000
     14 C           7.2948    9.4021    4.3094 C.3     1  UNL1        0.0000
     15 H           7.1858    9.1958    3.2491 H       1  UNL1        0.0000
     16 H           7.6974   10.4056    4.4143 H       1  UNL1        0.0000
     17 H           8.0381    8.7156    4.7010 H       1  UNL1        0.0000
@<TRIPOS>BOND
     1    15    14    1
     2    14    16    1
     3    14    17    1
     4    14     1    1
     5     2     1    1
     6     1     3    1
     7    13    12    1
     8     3    12   ar
     9     3     4   ar
    10    12    10   ar
    11     5     4    1
    12     4     6   ar
    13    10    11    1
    14    10     8   ar
    15     6     8   ar
    16     6     7    1
    17     8     9    1
