@<TRIPOS>MOLECULE
1
 20 20 0 0 0
SMALL
GASTEIGER

@<TRIPOS>ATOM
      1 SI          0.5992    7.7664   12.2995 Si      1  UNL1        0.0000
      2 C          -0.0549    9.4497   11.5954 C.ar    1  UNL1        0.0000
      3 C           0.4867   10.0714   10.4756 C.ar    1  UNL1        0.0000
      4 H           1.3187    9.6063    9.9655 H       1  UNL1        0.0000
      5 C           0.0015   11.2789   10.0045 C.ar    1  UNL1        0.0000
      6 H           0.4506   11.7375    9.1336 H       1  UNL1        0.0000
      7 C          -1.0545   11.8998   10.6479 C.ar    1  UNL1        0.0000
      8 H          -1.4388   12.8427   10.2843 H       1  UNL1        0.0000
      9 C          -1.6132   11.3000   11.7639 C.ar    1  UNL1        0.0000
     10 H          -2.4390   11.7762   12.2751 H       1  UNL1        0.0000
     11 C          -1.1159   10.0950   12.2260 C.ar    1  UNL1        0.0000
     12 H          -1.5615    9.6454   13.1007 H       1  UNL1        0.0000
     13 C           0.9207    8.1886   14.1759 C.3     1  UNL1        0.0000
     14 H           1.9726    8.1903   14.4375 H       1  UNL1        0.0000
     15 H           0.5155    9.1644   14.4193 H       1  UNL1        0.0000
     16 H           0.4281    7.4592   14.8088 H       1  UNL1        0.0000
     17 C          -1.0621    6.7687   12.4708 C.3     1  UNL1        0.0000
     18 H          -1.5864    6.6635   11.5255 H       1  UNL1        0.0000
     19 H          -0.8795    5.7728   12.8638 H       1  UNL1        0.0000
     20 H          -1.7358    7.2683   13.1599 H       1  UNL1        0.0000
@<TRIPOS>BOND
     1     6     5    1
     2     4     3    1
     3     5     3   ar
     4     5     7   ar
     5     8     7    1
     6     3     2   ar
     7     7     9   ar
     8    18    17    1
     9     2    11   ar
    10     2     1    1
    11     9    11   ar
    12     9    10    1
    13    11    12    1
    14     1    17    1
    15     1    13    1
    16    17    19    1
    17    17    20    1
    18    13    15    1
    19    13    14    1
    20    13    16    1
