@<TRIPOS>MOLECULE
2
 58 59 0 0 0
SMALL
GASTEIGER

@<TRIPOS>ATOM
      1 P           9.6493    4.5779    7.9567 P.3     1  UNL1        0.0000
      2 SI          8.9135    7.0042    9.9494 Si      1  UNL1        0.0000
      3 N          10.9590    3.6836    8.4316 N.3     1  UNL1        0.0000
      4 N           9.9634    5.3463    6.5290 N.3     1  UNL1        0.0000
      5 N           8.2779    3.6575    7.9128 N.3     1  UNL1        0.0000
      6 O           9.4923    5.6415    9.0313 O.3     1  UNL1        0.0000
      7 C           8.2414    6.1689   11.5113 C.ar    1  UNL1        0.0000
      8 C           7.8372    4.8380   11.5596 C.ar    1  UNL1        0.0000
      9 H           7.9033    4.2337   10.6653 H       1  UNL1        0.0000
     10 C           7.3551    4.2791   12.7282 C.ar    1  UNL1        0.0000
     11 H           7.0493    3.2426   12.7410 H       1  UNL1        0.0000
     12 C           7.2537    5.0349   13.8904 C.ar    1  UNL1        0.0000
     13 C           7.6548    6.3673   13.8474 C.ar    1  UNL1        0.0000
     14 H           7.5842    6.9706   14.7406 H       1  UNL1        0.0000
     15 C           8.1417    6.9205   12.6808 C.ar    1  UNL1        0.0000
     16 H           8.4583    7.9535   12.6616 H       1  UNL1        0.0000
     17 C           6.7090    4.4434   15.1502 C.3     1  UNL1        0.0000
     18 H           5.6502    4.6865   15.2429 H       1  UNL1        0.0000
     19 H           7.2188    4.8478   16.0215 H       1  UNL1        0.0000
     20 H           6.8074    3.3609   15.1507 H       1  UNL1        0.0000
     21 C           7.4753    7.7276    8.9431 C.ar    1  UNL1        0.0000
     22 C           6.4198    8.3615    9.5983 C.ar    1  UNL1        0.0000
     23 H           6.3968    8.3636   10.6776 H       1  UNL1        0.0000
     24 C           5.4077    8.9772    8.8899 C.ar    1  UNL1        0.0000
     25 H           4.6004    9.4604    9.4199 H       1  UNL1        0.0000
     26 C           5.4141    8.9896    7.4984 C.ar    1  UNL1        0.0000
     27 C           6.4646    8.3609    6.8392 C.ar    1  UNL1        0.0000
     28 H           6.4898    8.3615    5.7588 H       1  UNL1        0.0000
     29 C           7.4778    7.7471    7.5492 C.ar    1  UNL1        0.0000
     30 H           8.2869    7.2653    7.0193 H       1  UNL1        0.0000
     31 C           4.3304    9.6825    6.7377 C.3     1  UNL1        0.0000
     32 H           3.3697    9.5582    7.2315 H       1  UNL1        0.0000
     33 H           4.2603    9.3049    5.7209 H       1  UNL1        0.0000
     34 H           4.5422   10.7507    6.6880 H       1  UNL1        0.0000
     35 C          10.9643    3.1261    9.7724 C.3     1  UNL1        0.0000
     36 H          10.6725    2.0722    9.7750 H       1  UNL1        0.0000
     37 H          10.2687    3.6892   10.3901 H       1  UNL1        0.0000
     38 H          11.9673    3.2083   10.1949 H       1  UNL1        0.0000
     39 C          11.8407    3.0095    7.4984 C.3     1  UNL1        0.0000
     40 H          12.8782    3.1699    7.8007 H       1  UNL1        0.0000
     41 H          11.7015    3.4117    6.4984 H       1  UNL1        0.0000
     42 H          11.6617    1.9302    7.4719 H       1  UNL1        0.0000
     43 C          11.0245    6.3363    6.5003 C.3     1  UNL1        0.0000
     44 H          11.9392    5.9362    6.0542 H       1  UNL1        0.0000
     45 H          11.2303    6.6622    7.5192 H       1  UNL1        0.0000
     46 H          10.7030    7.2001    5.9156 H       1  UNL1        0.0000
     47 C           9.5504    4.8515    5.2314 C.3     1  UNL1        0.0000
     48 H           9.1448    5.6772    4.6425 H       1  UNL1        0.0000
     49 H           8.7773    4.0979    5.3522 H       1  UNL1        0.0000
     50 H          10.3861    4.4157    4.6753 H       1  UNL1        0.0000
     51 C           6.9724    4.2901    7.8402 C.3     1  UNL1        0.0000
     52 H           6.5945    4.3251    6.8148 H       1  UNL1        0.0000
     53 H           7.0364    5.3037    8.2282 H       1  UNL1        0.0000
     54 H           6.2679    3.7212    8.4493 H       1  UNL1        0.0000
     55 C           8.2920    2.2771    7.4631 C.3     1  UNL1        0.0000
     56 H           7.6811    1.6744    8.1388 H       1  UNL1        0.0000
     57 H           9.3076    1.8907    7.4710 H       1  UNL1        0.0000
     58 H           7.8838    2.1718    6.4536 H       1  UNL1        0.0000
@<TRIPOS>BOND
     1    48    47    1
     2    50    47    1
     3    47    49    1
     4    47     4    1
     5    33    31    1
     6    28    27    1
     7    46    43    1
     8    44    43    1
     9    58    55    1
    10    41    39    1
    11    43     4    1
    12    43    45    1
    13     4     1    1
    14    34    31    1
    15    31    32    1
    16    31    26    1
    17    52    51    1
    18    27    26   ar
    19    27    29   ar
    20    30    29    1
    21    55    57    1
    22    55     5    1
    23    55    56    1
    24    42    39    1
    25    39    40    1
    26    39     3    1
    27    26    24   ar
    28    29    21   ar
    29    51     5    1
    30    51    53    1
    31    51    54    1
    32     5     1    1
    33     1     3    1
    34     1     6    1
    35     3    35    1
    36    24    25    1
    37    24    22   ar
    38    21    22   ar
    39    21     2    1
    40     6     2    1
    41    22    23    1
    42    35    36    1
    43    35    38    1
    44    35    37    1
    45     2     7    1
    46     9     8    1
    47     7     8   ar
    48     7    15   ar
    49     8    10   ar
    50    16    15    1
    51    15    13   ar
    52    10    11    1
    53    10    12   ar
    54    13    12   ar
    55    13    14    1
    56    12    17    1
    57    17    20    1
    58    17    18    1
    59    17    19    1
