@<TRIPOS>MOLECULE
1
 10 9 0 0 0
SMALL
GASTEIGER

@<TRIPOS>ATOM
      1 SI          1.8957   -5.8182    2.0300 Si      1  UNL1        0.0000
      2 BR          3.0003   -7.3652    0.7370 Br      1  UNL1        0.0000
      3 C           2.3570   -6.3251    3.8244 C.3     1  UNL1        0.0000
      4 H           2.1044   -5.5255    4.5170 H       1  UNL1        0.0000
      5 H           1.8075   -7.2127    4.1294 H       1  UNL1        0.0000
      6 H           3.4135   -6.5453    3.9485 H       1  UNL1        0.0000
      7 C           0.0542   -6.3326    1.8585 C.3     1  UNL1        0.0000
      8 H          -0.1289   -7.2866    2.3482 H       1  UNL1        0.0000
      9 H          -0.5856   -5.5903    2.3294 H       1  UNL1        0.0000
     10 H          -0.2685   -6.4348    0.8263 H       1  UNL1        0.0000
@<TRIPOS>BOND
     1     2     1    1
     2    10     7    1
     3     7     1    1
     4     7     9    1
     5     7     8    1
     6     1     3    1
     7     3     6    1
     8     3     5    1
     9     3     4    1
