@<TRIPOS>MOLECULE
1
 10 9 0 0 0
SMALL
GASTEIGER

@<TRIPOS>ATOM
      1 SI          1.8957   -0.8562    2.0300 Si      1  UNL1        0.0000
      2 BR          3.0002    0.6907    0.7370 Br      1  UNL1        0.0000
      3 C           2.3570   -0.3494    3.8244 C.3     1  UNL1        0.0000
      4 C           0.0542   -0.3419    1.8585 C.3     1  UNL1        0.0000
      5 H           2.1046   -1.1491    4.5170 H       1  UNL1        0.0000
      6 H           1.8074    0.5380    4.1296 H       1  UNL1        0.0000
      7 H           3.4134   -0.1290    3.9485 H       1  UNL1        0.0000
      8 H          -0.1290    0.6120    2.3482 H       1  UNL1        0.0000
      9 H          -0.5856   -1.0843    2.3294 H       1  UNL1        0.0000
     10 H          -0.2685   -0.2397    0.8263 H       1  UNL1        0.0000
@<TRIPOS>BOND
     1     2     1    1
     2    10     4    1
     3     4     1    1
     4     4     9    1
     5     4     8    1
     6     1     3    1
     7     3     7    1
     8     3     6    1
     9     3     5    1
