@<TRIPOS>MOLECULE
1
 13 12 0 0 0
SMALL
GASTEIGER

@<TRIPOS>ATOM
      1 SI          1.1419    4.3797    4.3286 Si      1  UNL1        0.0000
      2 C          -0.0565    5.6877    3.5158 C.3     1  UNL1        0.0000
      3 C          -0.1125    3.0502    5.0086 C.3     1  UNL1        0.0000
      4 C           1.7829    5.2890    5.9311 C.3     1  UNL1        0.0000
      5 H          -0.9637    5.8127    4.1032 H       1  UNL1        0.0000
      6 H           0.4058    6.6679    3.4291 H       1  UNL1        0.0000
      7 H          -0.3565    5.3693    2.5183 H       1  UNL1        0.0000
      8 H          -0.9493    3.5191    5.5224 H       1  UNL1        0.0000
      9 H          -0.5229    2.4601    4.1905 H       1  UNL1        0.0000
     10 H           0.3544    2.3653    5.7119 H       1  UNL1        0.0000
     11 H           0.9680    5.4628    6.6289 H       1  UNL1        0.0000
     12 H           2.5427    4.7137    6.4546 H       1  UNL1        0.0000
     13 H           2.2144    6.2572    5.6927 H       1  UNL1        0.0000
@<TRIPOS>BOND
     1     7     2    1
     2     6     2    1
     3     2     5    1
     4     2     1    1
     5     9     3    1
     6     1     3    1
     7     1     4    1
     8     3     8    1
     9     3    10    1
    10    13     4    1
    11     4    12    1
    12     4    11    1
