@<TRIPOS>MOLECULE
1
 22 21 0 0 0
SMALL
GASTEIGER

@<TRIPOS>ATOM
      1 SI          5.7849   15.1702   12.1499 Si      1  UNL1        0.0000
      2 C           5.7662   17.0819   12.5228 C.3     1  UNL1        0.0000
      3 H           4.8189   17.4935   12.1791 H       1  UNL1        0.0000
      4 H           5.8034   17.2346   13.6026 H       1  UNL1        0.0000
      5 C           6.9013   17.8666   11.8772 C.3     1  UNL1        0.0000
      6 H           6.8888   17.7263   10.8015 H       1  UNL1        0.0000
      7 H           7.8652   17.5342   12.2520 H       1  UNL1        0.0000
      8 H           6.8036   18.9308   12.0875 H       1  UNL1        0.0000
      9 C           7.6264   14.6048   12.5096 C.3     1  UNL1        0.0000
     10 H           7.7510   13.5480   12.2784 H       1  UNL1        0.0000
     11 H           8.2834   15.1381   11.8252 H       1  UNL1        0.0000
     12 C           8.1017   14.8526   13.9365 C.3     1  UNL1        0.0000
     13 H           7.5289   14.2586   14.6435 H       1  UNL1        0.0000
     14 H           7.9897   15.8994   14.2031 H       1  UNL1        0.0000
     15 H           9.1527   14.5847   14.0446 H       1  UNL1        0.0000
     16 C           4.6999   14.3973   13.5783 C.3     1  UNL1        0.0000
     17 H           4.5451   13.3362   13.3899 H       1  UNL1        0.0000
     18 H           5.2360   14.4748   14.5233 H       1  UNL1        0.0000
     19 C           3.3458   15.0737   13.7358 C.3     1  UNL1        0.0000
     20 H           2.7929   15.0461   12.8019 H       1  UNL1        0.0000
     21 H           3.4713   16.1148   14.0169 H       1  UNL1        0.0000
     22 H           2.7489   14.5822   14.5042 H       1  UNL1        0.0000
@<TRIPOS>BOND
     1     6     5    1
     2    11     9    1
     3     5     8    1
     4     5     7    1
     5     5     2    1
     6     1     9    1
     7     1     2    1
     8     1    16    1
     9     3     2    1
    10    10     9    1
    11     9    12    1
    12     2     4    1
    13    20    19    1
    14    17    16    1
    15    16    19    1
    16    16    18    1
    17    19    21    1
    18    19    22    1
    19    12    15    1
    20    12    14    1
    21    12    13    1
