@<TRIPOS>MOLECULE
3
 42 43 0 0 0
SMALL
GASTEIGER

@<TRIPOS>ATOM
      1 H           2.8952    7.2216   13.2463 H       1  UNL1        0.0000
      2 H           2.8370   12.1383   11.5060 H       1  UNL1        0.0000
      3 SI          3.8700   11.1300   11.9664 Si      1  UNL1        0.0000
      4 C           5.1863   12.2826   12.7865 C.ar    1  UNL1        0.0000
      5 C           5.3479   13.6227   12.4172 C.ar    1  UNL1        0.0000
      6 C           6.2867   14.4246   13.0551 C.ar    1  UNL1        0.0000
      7 C           7.0910   13.9405   14.0706 C.ar    1  UNL1        0.0000
      8 C           6.9360   12.6120   14.4340 C.ar    1  UNL1        0.0000
      9 C           6.0099   11.7924   13.8088 C.ar    1  UNL1        0.0000
     10 C           4.5062   14.2801   11.3636 C.3     1  UNL1        0.0000
     11 C           8.0889   14.8158   14.7678 C.3     1  UNL1        0.0000
     12 C           5.9197   10.3679   14.2653 C.3     1  UNL1        0.0000
     13 C           2.8514   10.5669   13.5472 C.ar    1  UNL1        0.0000
     14 C           2.7545    9.2322   13.9495 C.ar    1  UNL1        0.0000
     15 C           1.9733    8.8576   15.0389 C.ar    1  UNL1        0.0000
     16 C           1.2648    9.7880   15.7729 C.ar    1  UNL1        0.0000
     17 C           1.3713   11.1171   15.3924 C.ar    1  UNL1        0.0000
     18 C           2.1438   11.5128   14.3115 C.ar    1  UNL1        0.0000
     19 C           3.5112    8.1180   13.2857 C.3     1  UNL1        0.0000
     20 C           0.4177    9.3920   16.9447 C.3     1  UNL1        0.0000
     21 C           2.1967   12.9803   14.0113 C.3     1  UNL1        0.0000
     22 H           6.3870   15.4586   12.7508 H       1  UNL1        0.0000
     23 H           7.5548   12.2079   15.2249 H       1  UNL1        0.0000
     24 H           4.2513   13.5943   10.5661 H       1  UNL1        0.0000
     25 H           5.0263   15.1418   10.9479 H       1  UNL1        0.0000
     26 H           3.5726   14.6337   11.8012 H       1  UNL1        0.0000
     27 H           7.7419   15.0541   15.7738 H       1  UNL1        0.0000
     28 H           8.2341   15.7478   14.2265 H       1  UNL1        0.0000
     29 H           9.0483   14.3087   14.8583 H       1  UNL1        0.0000
     30 H           6.7729   10.1120   14.8912 H       1  UNL1        0.0000
     31 H           5.0142   10.2196   14.8509 H       1  UNL1        0.0000
     32 H           5.8937    9.6874   13.4168 H       1  UNL1        0.0000
     33 H           1.9283    7.8124   15.3172 H       1  UNL1        0.0000
     34 H           0.8358   11.8658   15.9616 H       1  UNL1        0.0000
     35 H           4.4027    7.8750   13.8641 H       1  UNL1        0.0000
     36 H           3.8317    8.3767   12.2701 H       1  UNL1        0.0000
     37 H           0.4532    8.3169   17.1053 H       1  UNL1        0.0000
     38 H          -0.6190    9.6853   16.7807 H       1  UNL1        0.0000
     39 H           0.7645    9.8902   17.8497 H       1  UNL1        0.0000
     40 H           1.7235   13.1930   13.0543 H       1  UNL1        0.0000
     41 H           1.6803   13.5455   14.7845 H       1  UNL1        0.0000
     42 H           3.2275   13.3206   13.9591 H       1  UNL1        0.0000
@<TRIPOS>BOND
     1    24    10    1
     2    25    10    1
     3    10    26    1
     4    10     5    1
     5     2     3    1
     6     3     4    1
     7     3    13    1
     8    36    19    1
     9     5     4   ar
    10     5     6   ar
    11    22     6    1
    12     4     9   ar
    13    40    21    1
    14     6     7   ar
    15     1    19    1
    16    19    35    1
    17    19    14    1
    18    32    12    1
    19    13    14   ar
    20    13    18   ar
    21     9    12    1
    22     9     8   ar
    23    14    15   ar
    24    42    21    1
    25    21    18    1
    26    21    41    1
    27     7     8   ar
    28     7    11    1
    29    28    11    1
    30    12    31    1
    31    12    30    1
    32    18    17   ar
    33     8    23    1
    34    11    29    1
    35    11    27    1
    36    15    33    1
    37    15    16   ar
    38    17    16   ar
    39    17    34    1
    40    16    20    1
    41    38    20    1
    42    20    37    1
    43    20    39    1
