@<TRIPOS>MOLECULE
3
 7 6 0 0 0
SMALL
GASTEIGER

@<TRIPOS>ATOM
      1 CL          5.8721   21.0010   16.1249 Cl      1  UNL1        0.0000
      2 CL          5.1355   21.5023   19.2116 Cl      1  UNL1        0.0000
      3 SI          6.5153   22.1377   17.7648 Si      1  UNL1        0.0000
      4 C           5.8304   23.8927   17.3480 C.3     1  UNL1        0.0000
      5 H           6.4079   24.3664   16.5593 H       1  UNL1        0.0000
      6 H           5.8681   24.5383   18.2218 H       1  UNL1        0.0000
      7 H           4.7966   23.8280   17.0186 H       1  UNL1        0.0000
@<TRIPOS>BOND
     1     1     3    1
     2     5     4    1
     3     7     4    1
     4     4     3    1
     5     4     6    1
     6     3     2    1
