@<TRIPOS>MOLECULE
1
 38 43 0 0 0
SMALL
GASTEIGER

@<TRIPOS>ATOM
      1 SI         25.0433    0.2242   21.1731 Si      1  UNL1        0.0000
      2 SI         28.0384    1.7391   20.9816 Si      1  UNL1        0.0000
      3 C          25.5088    1.0369   19.5037 C.3     1  UNL1        0.0000
      4 C          26.9324    1.7667   19.4021 C.3     1  UNL1        0.0000
      5 C          24.8196   -1.6585   20.8218 C.3     1  UNL1        0.0000
      6 H          24.5813   -2.2021   21.7318 H       1  UNL1        0.0000
      7 H          25.7110   -2.1107   20.3995 H       1  UNL1        0.0000
      8 H          24.0058   -1.8194   20.1219 H       1  UNL1        0.0000
      9 C          23.2690    0.8273   21.6240 C.3     1  UNL1        0.0000
     10 H          22.5475    0.4679   20.8966 H       1  UNL1        0.0000
     11 H          23.2094    1.9107   21.6456 H       1  UNL1        0.0000
     12 H          22.9622    0.4643   22.6009 H       1  UNL1        0.0000
     13 C          28.5583    3.5787   21.2609 C.3     1  UNL1        0.0000
     14 H          29.2624    3.6570   22.0840 H       1  UNL1        0.0000
     15 H          27.7035    4.1995   21.5083 H       1  UNL1        0.0000
     16 H          29.0347    3.9950   20.3789 H       1  UNL1        0.0000
     17 C          29.7136    0.9570   20.3976 C.3     1  UNL1        0.0000
     18 H          30.3228    1.7280   19.9367 H       1  UNL1        0.0000
     19 H          29.5719    0.1789   19.6555 H       1  UNL1        0.0000
     20 H          30.2896    0.5432   21.2198 H       1  UNL1        0.0000
     21 B          26.7278    0.2873   18.5674 B       1  UNL1        0.0000
     22 H          27.2460   -0.6647   19.0273 H       1  UNL1        0.0000
     23 B          25.0635    0.3178   18.0120 B       1  UNL1        0.0000
     24 H          24.4322   -0.6747   18.0370 H       1  UNL1        0.0000
     25 B          24.3280    1.8243   18.5404 B       1  UNL1        0.0000
     26 H          23.2118    1.8208   18.9086 H       1  UNL1        0.0000
     27 B          25.5266    2.7451   19.4378 B       1  UNL1        0.0000
     28 H          25.3036    3.3181   20.4397 H       1  UNL1        0.0000
     29 B          27.5893    1.6214   17.8237 B       1  UNL1        0.0000
     30 H          28.7581    1.5618   17.7094 H       1  UNL1        0.0000
     31 B          26.3921    0.6915   16.8918 B       1  UNL1        0.0000
     32 H          26.6990   -0.0330   16.0147 H       1  UNL1        0.0000
     33 B          24.8872    1.6583   16.8664 B       1  UNL1        0.0000
     34 H          24.1303    1.6024   15.9652 H       1  UNL1        0.0000
     35 B          26.8503    3.1253   18.3508 B       1  UNL1        0.0000
     36 H          27.5307    4.0556   18.5742 H       1  UNL1        0.0000
     37 B          26.4646    2.4719   16.7480 B       1  UNL1        0.0000
     38 H          26.8343    2.9984   15.7610 H       1  UNL1        0.0000
@<TRIPOS>BOND
     1    38    37    1
     2    34    33    1
     3    32    31    1
     4    37    33    1
     5    37    31    1
     6    37    35    1
     7    33    23    1
     8    33    25    1
     9    30    29    1
    10    29    35    1
    11    29    21    1
    12    29     4    1
    13    23    24    1
    14    23    25    1
    15    23     3    1
    16    35    36    1
    17    35    27    1
    18    25    26    1
    19    21    22    1
    20    21     4    1
    21    21     3    1
    22     4    27    1
    23     4     3    1
    24    27     3    1
    25    27    28    1
    26    19    17    1
    27    18    17    1
    28     8     5    1
    29    16    13    1
    30    17     2    1
    31    17    20    1
    32     7     5    1
    33     5     1    1
    34     5     6    1
    35    10     9    1
    36     2    13    1
    37     1     9    1
    38    13    15    1
    39    13    14    1
    40     9    11    1
    41     9    12    1
    42     1     3    0
    43     2     4    0
