@<TRIPOS>MOLECULE
1
 24 25 0 0 0
SMALL
GASTEIGER

@<TRIPOS>ATOM
      1 SI          3.9355    1.0939    3.5222 Si      1  UNL1        0.0000
      2 C           4.9130    1.2492    1.9046 C.ar    1  UNL1        0.0000
      3 C           6.2711    1.5383    1.9251 C.ar    1  UNL1        0.0000
      4 H           6.7644    1.6733    2.8765 H       1  UNL1        0.0000
      5 C           6.9991    1.6641    0.7555 C.ar    1  UNL1        0.0000
      6 H           8.0552    1.8938    0.7962 H       1  UNL1        0.0000
      7 C           6.3766    1.4931   -0.4692 C.ar    1  UNL1        0.0000
      8 H           6.9412    1.5893   -1.3863 H       1  UNL1        0.0000
      9 C           5.0264    1.1895   -0.5105 C.ar    1  UNL1        0.0000
     10 H           4.5333    1.0454   -1.4626 H       1  UNL1        0.0000
     11 C           4.3097    1.0693    0.6669 C.ar    1  UNL1        0.0000
     12 H           3.2580    0.8257    0.6216 H       1  UNL1        0.0000
     13 C           3.0531   -0.5734    3.2318 C.ar    1  UNL1        0.0000
     14 C           1.8933   -0.6787    2.4765 C.ar    1  UNL1        0.0000
     15 H           1.4466    0.2197    2.0728 H       1  UNL1        0.0000
     16 C           1.2911   -1.8989    2.2269 C.ar    1  UNL1        0.0000
     17 H           0.3872   -1.9470    1.6344 H       1  UNL1        0.0000
     18 C           1.8481   -3.0587    2.7367 C.ar    1  UNL1        0.0000
     19 H           1.3821   -4.0158    2.5492 H       1  UNL1        0.0000
     20 C           3.0115   -2.9809    3.4826 C.ar    1  UNL1        0.0000
     21 H           3.4606   -3.8820    3.8771 H       1  UNL1        0.0000
     22 C           3.6031   -1.7527    3.7191 C.ar    1  UNL1        0.0000
     23 H           4.5208   -1.7103    4.2890 H       1  UNL1        0.0000
     24 H           5.0203    0.6442    4.4379 H       1  UNL1        0.0000
@<TRIPOS>BOND
     1    10     9    1
     2     8     7    1
     3     9     7   ar
     4     9    11   ar
     5     7     5   ar
     6    12    11    1
     7    11     2   ar
     8     5     6    1
     9     5     3   ar
    10    17    16    1
    11     2     3   ar
    12     2     1    1
    13     3     4    1
    14    15    14    1
    15    16    14   ar
    16    16    18   ar
    17    14    13   ar
    18    19    18    1
    19    18    20   ar
    20    13     1    1
    21    13    22   ar
    22    20    22   ar
    23    20    21    1
    24     1    24    1
    25    22    23    1
