@<TRIPOS>MOLECULE
3
 7 6 0 0 0
SMALL
GASTEIGER

@<TRIPOS>ATOM
      1 CL         -0.1605    7.0233    9.6074 Cl      1  UNL1        0.0000
      2 CL         -2.1877    8.3695   11.7468 Cl      1  UNL1        0.0000
      3 SI         -0.9433    8.9196   10.1136 Si      1  UNL1        0.0000
      4 C          -2.2887    9.1269    8.7390 C.3     1  UNL1        0.0000
      5 H          -2.8760    8.2185    8.6420 H       1  UNL1        0.0000
      6 H          -1.8284    9.3315    7.7775 H       1  UNL1        0.0000
      7 H          -2.9686    9.9422    8.9668 H       1  UNL1        0.0000
@<TRIPOS>BOND
     1     6     4    1
     2     5     4    1
     3     4     7    1
     4     4     3    1
     5     1     3    1
     6     3     2    1
