@<TRIPOS>MOLECULE
4
 4 3 0 0 0
SMALL
GASTEIGER

@<TRIPOS>ATOM
      1 CL          2.4133   16.8947    6.2051 Cl      1  UNL1        0.0000
      2 CL          1.3904   19.6069    4.7505 Cl      1  UNL1        0.0000
      3 CL          4.1426   19.6302    6.3981 Cl      1  UNL1        0.0000
      4 SI          2.1438   18.9487    6.5944 Si      1  UNL1        0.0000
@<TRIPOS>BOND
     1     2     4    1
     2     1     4    1
     3     3     4    1
