@<TRIPOS>MOLECULE
3
 14 14 0 0 0
SMALL
GASTEIGER

@<TRIPOS>ATOM
      1 CL          6.1185    3.8928   -0.7355 Cl      1  UNL1        0.0000
      2 CL          7.9390    1.2797   -0.2395 Cl      1  UNL1        0.0000
      3 SI          7.4719    3.1317    0.6954 Si      1  UNL1        0.0000
      4 C           9.0475    4.1498    0.2872 C.ar    1  UNL1        0.0000
      5 C          10.3075    3.5636    0.2307 C.ar    1  UNL1        0.0000
      6 H          10.3997    2.4935    0.3482 H       1  UNL1        0.0000
      7 C          11.4405    4.3253    0.0051 C.ar    1  UNL1        0.0000
      8 H          12.4094    3.8482   -0.0419 H       1  UNL1        0.0000
      9 C          11.3335    5.6954   -0.1618 C.ar    1  UNL1        0.0000
     10 H          12.2167    6.2928   -0.3375 H       1  UNL1        0.0000
     11 C          10.0863    6.2947   -0.1097 C.ar    1  UNL1        0.0000
     12 H           9.9933    7.3630   -0.2470 H       1  UNL1        0.0000
     13 C           8.9585    5.5268    0.1154 C.ar    1  UNL1        0.0000
     14 H           7.9885    6.0018    0.1431 H       1  UNL1        0.0000
@<TRIPOS>BOND
     1     1     3    1
     2    10     9    1
     3    12    11    1
     4     2     3    1
     5     9    11   ar
     6     9     7   ar
     7    11    13   ar
     8     8     7    1
     9     7     5   ar
    10    13    14    1
    11    13     4   ar
    12     5     4   ar
    13     5     6    1
    14     4     3    1
