@<TRIPOS>MOLECULE
1
 16 16 0 0 0
SMALL
GASTEIGER

@<TRIPOS>ATOM
      1 SI          7.0827   -0.7708    4.3501 Si      1  UNL1        0.0000
      2 C           6.1990   -1.9415    5.6026 C.3     1  UNL1        0.0000
      3 C           6.0162   -1.2002    2.8134 C.ar    1  UNL1        0.0000
      4 C           4.7590   -0.6215    2.6765 C.ar    1  UNL1        0.0000
      5 C           3.9613   -0.8841    1.5782 C.ar    1  UNL1        0.0000
      6 C           4.4114   -1.7401    0.5860 C.ar    1  UNL1        0.0000
      7 C           5.6586   -2.3297    0.7045 C.ar    1  UNL1        0.0000
      8 C           6.4486   -2.0577    1.8073 C.ar    1  UNL1        0.0000
      9 H           3.7917   -1.9482   -0.2743 H       1  UNL1        0.0000
     10 H           6.0134   -3.0025   -0.0641 H       1  UNL1        0.0000
     11 H           7.4204   -2.5267    1.8933 H       1  UNL1        0.0000
     12 H           5.1598   -1.6445    5.7297 H       1  UNL1        0.0000
     13 H           6.2017   -2.9731    5.2551 H       1  UNL1        0.0000
     14 H           6.6836   -1.9184    6.5736 H       1  UNL1        0.0000
     15 H           4.4068    0.0507    3.4467 H       1  UNL1        0.0000
     16 H           2.9867   -0.4238    1.4925 H       1  UNL1        0.0000
@<TRIPOS>BOND
     1     9     6    1
     2    10     7    1
     3     6     7   ar
     4     6     5   ar
     5     7     8   ar
     6    16     5    1
     7     5     4   ar
     8     8    11    1
     9     8     3   ar
    10     4     3   ar
    11     4    15    1
    12     3     1    1
    13     1     2    1
    14    13     2    1
    15     2    12    1
    16     2    14    1
