@<TRIPOS>MOLECULE
1
 37 39 0 0 0
SMALL
GASTEIGER

@<TRIPOS>ATOM
      1 SI         15.6084    1.8266   14.0141 Si      1  UNL1        0.0000
      2 C          16.3732    0.4603   15.1358 C.ar    1  UNL1        0.0000
      3 C          17.2348    0.7300   16.1946 C.ar    1  UNL1        0.0000
      4 C          17.7607   -0.2884   16.9709 C.ar    1  UNL1        0.0000
      5 C          17.4471   -1.6097   16.7008 C.ar    1  UNL1        0.0000
      6 C          16.6123   -1.9034   15.6362 C.ar    1  UNL1        0.0000
      7 C          16.0918   -0.8744   14.8730 C.ar    1  UNL1        0.0000
      8 C          14.9704    3.2504   15.2042 C.3     1  UNL1        0.0000
      9 C          15.9200    3.6944   16.2513 C.ar    1  UNL1        0.0000
     10 C          16.9666    4.5644   15.9562 C.ar    1  UNL1        0.0000
     11 C          17.8635    4.9529   16.9331 C.ar    1  UNL1        0.0000
     12 C          17.7287    4.4898   18.2318 C.ar    1  UNL1        0.0000
     13 C          16.6843    3.6359   18.5438 C.ar    1  UNL1        0.0000
     14 C          15.7918    3.2439   17.5635 C.ar    1  UNL1        0.0000
     15 C          17.1899    2.6941   13.3238 C.ar    1  UNL1        0.0000
     16 C          17.0288    3.8117   12.5070 C.ar    1  UNL1        0.0000
     17 C          18.1118    4.4765   11.9636 C.ar    1  UNL1        0.0000
     18 C          19.3988    4.0316   12.2213 C.ar    1  UNL1        0.0000
     19 C          19.5827    2.9199   13.0231 C.ar    1  UNL1        0.0000
     20 C          18.4893    2.2637   13.5641 C.ar    1  UNL1        0.0000
     21 H          17.5059    1.7497   16.4117 H       1  UNL1        0.0000
     22 H          18.4238   -0.0490   17.7906 H       1  UNL1        0.0000
     23 H          17.8565   -2.4047   17.3081 H       1  UNL1        0.0000
     24 H          16.3714   -2.9335   15.4050 H       1  UNL1        0.0000
     25 H          15.4509   -1.0967   14.0297 H       1  UNL1        0.0000
     26 H          14.7264    4.0842   14.5484 H       1  UNL1        0.0000
     27 H          14.0522    2.9225   15.6821 H       1  UNL1        0.0000
     28 H          17.0772    4.9321   14.9473 H       1  UNL1        0.0000
     29 H          18.6727    5.6240   16.6807 H       1  UNL1        0.0000
     30 H          18.4294    4.7956   18.9956 H       1  UNL1        0.0000
     31 H          16.5659    3.2735   19.5557 H       1  UNL1        0.0000
     32 H          14.9847    2.5685   17.8144 H       1  UNL1        0.0000
     33 H          16.0272    4.1631   12.2981 H       1  UNL1        0.0000
     34 H          17.9576    5.3467   11.3389 H       1  UNL1        0.0000
     35 H          20.2495    4.5488   11.7996 H       1  UNL1        0.0000
     36 H          20.5826    2.5628   13.2302 H       1  UNL1        0.0000
     37 H          18.6555    1.3969   14.1875 H       1  UNL1        0.0000
@<TRIPOS>BOND
     1    34    17    1
     2    35    18    1
     3    17    18   ar
     4    17    16   ar
     5    18    19   ar
     6    33    16    1
     7    16    15   ar
     8    19    36    1
     9    19    20   ar
    10    15    20   ar
    11    15     1    1
    12    20    37    1
    13     1     2    1
    14     1     8    1
    15    25     7    1
    16    26     8    1
    17     7     2   ar
    18     7     6   ar
    19    28    10    1
    20     2     3   ar
    21     8    27    1
    22     8     9    1
    23    24     6    1
    24     6     5   ar
    25    10     9   ar
    26    10    11   ar
    27     3    21    1
    28     3     4   ar
    29     9    14   ar
    30    29    11    1
    31     5     4   ar
    32     5    23    1
    33    11    12   ar
    34     4    22    1
    35    14    32    1
    36    14    13   ar
    37    12    13   ar
    38    12    30    1
    39    13    31    1
