@<TRIPOS>MOLECULE
1
 36 37 0 0 0
SMALL
GASTEIGER

@<TRIPOS>ATOM
      1 SI         -3.2057    2.8667    3.1418 Si      1  UNL1        0.0000
      2 C          -3.6389    2.9174    1.2363 C.ar    1  UNL1        0.0000
      3 C          -3.8606    1.7821    0.4565 C.ar    1  UNL1        0.0000
      4 H          -3.9290    0.8154    0.9350 H       1  UNL1        0.0000
      5 C          -3.9968    1.8456   -0.9185 C.ar    1  UNL1        0.0000
      6 H          -4.1745    0.9409   -1.4874 H       1  UNL1        0.0000
      7 C          -3.9038    3.0625   -1.5719 C.ar    1  UNL1        0.0000
      8 H          -4.0081    3.1179   -2.6476 H       1  UNL1        0.0000
      9 C          -3.6701    4.2076   -0.8271 C.ar    1  UNL1        0.0000
     10 H          -3.5902    5.1663   -1.3245 H       1  UNL1        0.0000
     11 C          -3.5369    4.1283    0.5456 C.ar    1  UNL1        0.0000
     12 H          -3.3513    5.0335    1.1075 H       1  UNL1        0.0000
     13 C          -4.2108    4.4561    3.6904 C.ar    1  UNL1        0.0000
     14 C          -5.3248    4.9790    3.0387 C.ar    1  UNL1        0.0000
     15 H          -5.6845    4.4998    2.1389 H       1  UNL1        0.0000
     16 C          -5.9804    6.1041    3.5101 C.ar    1  UNL1        0.0000
     17 H          -6.8441    6.4897    2.9819 H       1  UNL1        0.0000
     18 C          -5.5371    6.7381    4.6580 C.ar    1  UNL1        0.0000
     19 H          -6.0469    7.6183    5.0289 H       1  UNL1        0.0000
     20 C          -4.4328    6.2345    5.3263 C.ar    1  UNL1        0.0000
     21 H          -4.0784    6.7240    6.2253 H       1  UNL1        0.0000
     22 C          -3.7851    5.1119    4.8428 C.ar    1  UNL1        0.0000
     23 H          -2.9146    4.7253    5.3632 H       1  UNL1        0.0000
     24 C          -4.4640    1.5143    3.9331 C.3     1  UNL1        0.0000
     25 C          -5.8636    1.5123    3.3186 C.3     1  UNL1        0.0000
     26 H          -6.4908    0.7495    3.7878 H       1  UNL1        0.0000
     27 H          -5.8263    1.3116    2.2510 H       1  UNL1        0.0000
     28 H          -6.3401    2.4784    3.4660 H       1  UNL1        0.0000
     29 C          -4.5902    1.8233    5.4256 C.3     1  UNL1        0.0000
     30 H          -5.2046    1.0706    5.9264 H       1  UNL1        0.0000
     31 H          -5.0524    2.7955    5.5842 H       1  UNL1        0.0000
     32 H          -3.6031    1.8290    5.8854 H       1  UNL1        0.0000
     33 C          -3.8513    0.1187    3.8169 C.3     1  UNL1        0.0000
     34 H          -2.8653    0.1116    4.2817 H       1  UNL1        0.0000
     35 H          -3.7434   -0.1885    2.7790 H       1  UNL1        0.0000
     36 H          -4.4768   -0.6240    4.3195 H       1  UNL1        0.0000
@<TRIPOS>BOND
     1     8     7    1
     2     7     5   ar
     3     7     9   ar
     4     6     5    1
     5    10     9    1
     6     5     3   ar
     7     9    11   ar
     8     3     4    1
     9     3     2   ar
    10    11    12    1
    11    11     2   ar
    12     2     1    1
    13    15    14    1
    14    27    25    1
    15    35    33    1
    16    17    16    1
    17    14    16   ar
    18    14    13   ar
    19     1    13    1
    20     1    24    1
    21    25    28    1
    22    25    26    1
    23    25    24    1
    24    16    18   ar
    25    13    22   ar
    26    33    24    1
    27    33    34    1
    28    33    36    1
    29    24    29    1
    30    18    19    1
    31    18    20   ar
    32    22    20   ar
    33    22    23    1
    34    20    21    1
    35    29    31    1
    36    29    32    1
    37    29    30    1
