@<TRIPOS>MOLECULE
1
 36 37 0 0 0
SMALL
GASTEIGER

@<TRIPOS>ATOM
      1 SI          2.0987    2.8667    4.9559 Si      1  UNL1        0.0000
      2 C           2.5312    2.9173    6.8615 C.ar    1  UNL1        0.0000
      3 C           2.7530    1.7821    7.6412 C.ar    1  UNL1        0.0000
      4 H           2.8215    0.8154    7.1627 H       1  UNL1        0.0000
      5 C           2.8890    1.8455    9.0162 C.ar    1  UNL1        0.0000
      6 H           3.0668    0.9409    9.5851 H       1  UNL1        0.0000
      7 C           2.7959    3.0624    9.6696 C.ar    1  UNL1        0.0000
      8 H           2.9001    3.1178   10.7454 H       1  UNL1        0.0000
      9 C           2.5623    4.2075    8.9248 C.ar    1  UNL1        0.0000
     10 H           2.4823    5.1662    9.4223 H       1  UNL1        0.0000
     11 C           2.4291    4.1282    7.5521 C.ar    1  UNL1        0.0000
     12 H           2.2435    5.0334    6.9903 H       1  UNL1        0.0000
     13 C           3.1033    4.4563    4.4073 C.ar    1  UNL1        0.0000
     14 C           4.2173    4.9792    5.0590 C.ar    1  UNL1        0.0000
     15 H           4.5770    4.5000    5.9589 H       1  UNL1        0.0000
     16 C           4.8729    6.1043    4.5877 C.ar    1  UNL1        0.0000
     17 H           5.7365    6.4900    5.1160 H       1  UNL1        0.0000
     18 C           4.4296    6.7382    3.4398 C.ar    1  UNL1        0.0000
     19 H           4.9394    7.6185    3.0690 H       1  UNL1        0.0000
     20 C           3.3254    6.2346    2.7713 C.ar    1  UNL1        0.0000
     21 H           2.9710    6.7242    1.8723 H       1  UNL1        0.0000
     22 C           2.6776    5.1121    3.2549 C.ar    1  UNL1        0.0000
     23 H           1.8073    4.7254    2.7344 H       1  UNL1        0.0000
     24 C           3.3565    1.5142    4.1644 C.3     1  UNL1        0.0000
     25 C           4.7561    1.5122    4.7790 C.3     1  UNL1        0.0000
     26 H           5.3833    0.7494    4.3098 H       1  UNL1        0.0000
     27 H           4.7187    1.3116    5.8466 H       1  UNL1        0.0000
     28 H           5.2326    2.4784    4.6317 H       1  UNL1        0.0000
     29 C           3.4827    1.8233    2.6719 C.3     1  UNL1        0.0000
     30 H           4.0971    1.0706    2.1711 H       1  UNL1        0.0000
     31 H           3.9449    2.7955    2.5134 H       1  UNL1        0.0000
     32 H           2.4956    1.8290    2.2121 H       1  UNL1        0.0000
     33 C           2.7437    0.1187    4.2807 C.3     1  UNL1        0.0000
     34 H           1.7577    0.1117    3.8158 H       1  UNL1        0.0000
     35 H           2.6357   -0.1884    5.3186 H       1  UNL1        0.0000
     36 H           3.3691   -0.6241    3.7781 H       1  UNL1        0.0000
@<TRIPOS>BOND
     1    21    20    1
     2    30    29    1
     3    32    29    1
     4    31    29    1
     5    29    24    1
     6    23    22    1
     7    20    22   ar
     8    20    18   ar
     9    19    18    1
    10    22    13   ar
    11    18    16   ar
    12    36    33    1
    13    34    33    1
    14    24    33    1
    15    24    25    1
    16    24     1    1
    17    33    35    1
    18    26    25    1
    19    13     1    1
    20    13    14   ar
    21    16    14   ar
    22    16    17    1
    23    28    25    1
    24    25    27    1
    25     1     2    1
    26    14    15    1
    27     2    11   ar
    28     2     3   ar
    29    12    11    1
    30     4     3    1
    31    11     9   ar
    32     3     5   ar
    33     9    10    1
    34     9     7   ar
    35     5     6    1
    36     5     7   ar
    37     7     8    1
