@<TRIPOS>MOLECULE
1
 34 36 0 0 0
SMALL
GASTEIGER

@<TRIPOS>ATOM
      1 SI          6.9493    6.3704   13.6710 Si      1  UNL1        0.0000
      2 C           8.6944    7.1634   13.4514 C.ar    1  UNL1        0.0000
      3 C           9.6943    6.5161   12.7352 C.ar    1  UNL1        0.0000
      4 H           9.4923    5.5462   12.3013 H       1  UNL1        0.0000
      5 C          10.9482    7.0757   12.5662 C.ar    1  UNL1        0.0000
      6 H          11.7072    6.5452   12.0069 H       1  UNL1        0.0000
      7 C          11.2312    8.3139   13.1161 C.ar    1  UNL1        0.0000
      8 H          12.2110    8.7546   12.9936 H       1  UNL1        0.0000
      9 C          10.2450    8.9850   13.8185 C.ar    1  UNL1        0.0000
     10 H          10.4521    9.9583   14.2424 H       1  UNL1        0.0000
     11 C           8.9940    8.4154   13.9769 C.ar    1  UNL1        0.0000
     12 H           8.2309    8.9576   14.5152 H       1  UNL1        0.0000
     13 C           6.2097    7.3312   15.1746 C.ar    1  UNL1        0.0000
     14 C           6.9527    7.5657   16.3275 C.ar    1  UNL1        0.0000
     15 H           8.0002    7.3064   16.3424 H       1  UNL1        0.0000
     16 C           6.3852    8.1425   17.4495 C.ar    1  UNL1        0.0000
     17 H           6.9878    8.3049   18.3330 H       1  UNL1        0.0000
     18 C           5.0516    8.5122   17.4411 C.ar    1  UNL1        0.0000
     19 H           4.6037    8.9609   18.3170 H       1  UNL1        0.0000
     20 C           4.2998    8.3114   16.2960 C.ar    1  UNL1        0.0000
     21 H           3.2605    8.6112   16.2726 H       1  UNL1        0.0000
     22 C           4.8745    7.7249   15.1826 C.ar    1  UNL1        0.0000
     23 H           4.2746    7.5703   14.2972 H       1  UNL1        0.0000
     24 C           5.9819    7.2307   12.2311 C.ar    1  UNL1        0.0000
     25 C           4.7246    6.7792   11.8430 C.ar    1  UNL1        0.0000
     26 H           4.2931    5.9270   12.3497 H       1  UNL1        0.0000
     27 C           4.0161    7.3854   10.8212 C.ar    1  UNL1        0.0000
     28 H           3.0394    7.0118   10.5419 H       1  UNL1        0.0000
     29 C           4.5569    8.4725   10.1553 C.ar    1  UNL1        0.0000
     30 H           4.0091    8.9502    9.3547 H       1  UNL1        0.0000
     31 C           5.8046    8.9428   10.5281 C.ar    1  UNL1        0.0000
     32 H           6.2341    9.7939   10.0176 H       1  UNL1        0.0000
     33 C           6.5025    8.3273   11.5530 C.ar    1  UNL1        0.0000
     34 H           7.4756    8.7044   11.8299 H       1  UNL1        0.0000
@<TRIPOS>BOND
     1    30    29    1
     2    32    31    1
     3    29    31   ar
     4    29    27   ar
     5    31    33   ar
     6    28    27    1
     7    27    25   ar
     8    33    34    1
     9    33    24   ar
    10    25    24   ar
    11    25    26    1
    12     6     5    1
    13    24     1    1
    14     4     3    1
    15     5     3   ar
    16     5     7   ar
    17     3     2   ar
    18     8     7    1
    19     7     9   ar
    20     2     1    1
    21     2    11   ar
    22     1    13    1
    23     9    11   ar
    24     9    10    1
    25    11    12    1
    26    23    22    1
    27    13    22   ar
    28    13    14   ar
    29    22    20   ar
    30    21    20    1
    31    20    18   ar
    32    14    15    1
    33    14    16   ar
    34    18    16   ar
    35    18    19    1
    36    16    17    1
