@<TRIPOS>MOLECULE
1
 24 25 0 0 0
SMALL
GASTEIGER

@<TRIPOS>ATOM
      1 SI         -0.2012    5.6568   10.4729 Si      1  UNL1        0.0000
      2 H          -0.3026    4.2639    9.9364 H       1  UNL1        0.0000
      3 C          -0.3575    5.4503   12.3687 C.ar    1  UNL1        0.0000
      4 C          -0.3975    6.5533   13.2172 C.ar    1  UNL1        0.0000
      5 H          -0.3515    7.5461   12.7925 H       1  UNL1        0.0000
      6 C          -0.5081    6.4002   14.5876 C.ar    1  UNL1        0.0000
      7 H          -0.5343    7.2703   15.2286 H       1  UNL1        0.0000
      8 C          -0.5910    5.1327   15.1397 C.ar    1  UNL1        0.0000
      9 H          -0.6812    5.0094   16.2096 H       1  UNL1        0.0000
     10 C          -0.5606    4.0240   14.3109 C.ar    1  UNL1        0.0000
     11 H          -0.6273    3.0316   14.7347 H       1  UNL1        0.0000
     12 C          -0.4447    4.1866   12.9415 C.ar    1  UNL1        0.0000
     13 H          -0.4181    3.3165   12.3018 H       1  UNL1        0.0000
     14 C           1.6474    6.0467   10.1482 C.ar    1  UNL1        0.0000
     15 C           2.4388    6.7414   11.0565 C.ar    1  UNL1        0.0000
     16 H           2.0120    7.0478   11.9997 H       1  UNL1        0.0000
     17 C           3.7613    7.0412   10.7745 C.ar    1  UNL1        0.0000
     18 H           4.3582    7.5805   11.4970 H       1  UNL1        0.0000
     19 C           4.3195    6.6513    9.5685 C.ar    1  UNL1        0.0000
     20 H           5.3528    6.8788    9.3464 H       1  UNL1        0.0000
     21 C           3.5467    5.9586    8.6502 C.ar    1  UNL1        0.0000
     22 H           3.9793    5.6432    7.7100 H       1  UNL1        0.0000
     23 C           2.2256    5.6635    8.9395 C.ar    1  UNL1        0.0000
     24 H           1.6244    5.1283    8.2180 H       1  UNL1        0.0000
@<TRIPOS>BOND
     1    22    21    1
     2    24    23    1
     3    21    23   ar
     4    21    19   ar
     5    23    14   ar
     6    20    19    1
     7    19    17   ar
     8     2     1    1
     9    14     1    1
    10    14    15   ar
    11     1     3    1
    12    17    15   ar
    13    17    18    1
    14    15    16    1
    15    13    12    1
    16     3    12   ar
    17     3     4   ar
    18     5     4    1
    19    12    10   ar
    20     4     6   ar
    21    10    11    1
    22    10     8   ar
    23     6     8   ar
    24     6     7    1
    25     8     9    1
