@<TRIPOS>MOLECULE
1
 78 78 0 0 0
SMALL
GASTEIGER

@<TRIPOS>ATOM
      1 SI          1.5409   13.8926   17.5935 Si      1  UNL1        0.0000
      2 SI          0.5980   16.9296   20.4766 Si      1  UNL1        0.0000
      3 SI         -1.0165   17.4877   17.6254 Si      1  UNL1        0.0000
      4 SI          0.5092   10.3193   19.4663 Si      1  UNL1        0.0000
      5 SI         -1.5018   10.4592   16.8326 Si      1  UNL1        0.0000
      6 C          -0.1596   13.8137   18.4256 C.ar    1  UNL1        0.0000
      7 C          -0.7443   14.9911   18.9200 C.ar    1  UNL1        0.0000
      8 C          -1.9885   14.9371   19.5329 C.ar    1  UNL1        0.0000
      9 H          -2.4092   15.8643   19.8775 H       1  UNL1        0.0000
     10 C          -2.6719   13.7421   19.7000 C.ar    1  UNL1        0.0000
     11 C          -2.0766   12.5823   19.2127 C.ar    1  UNL1        0.0000
     12 H          -2.5760   11.6331   19.3197 H       1  UNL1        0.0000
     13 C          -0.8518   12.6001   18.5697 C.ar    1  UNL1        0.0000
     14 C          -0.0475   16.3009   18.7755 C.3     1  UNL1        0.0000
     15 H           0.8820   16.1182   18.2260 H       1  UNL1        0.0000
     16 C           1.3363   18.6739   20.2882 C.3     1  UNL1        0.0000
     17 H           2.0914   18.6766   19.5110 H       1  UNL1        0.0000
     18 H           1.8108   18.9966   21.2097 H       1  UNL1        0.0000
     19 H           0.5851   19.4124   20.0280 H       1  UNL1        0.0000
     20 C           1.9386   15.6834   21.0027 C.3     1  UNL1        0.0000
     21 H           1.5206   14.6891   21.1290 H       1  UNL1        0.0000
     22 H           2.4116   15.9618   21.9392 H       1  UNL1        0.0000
     23 H           2.7147   15.6131   20.2440 H       1  UNL1        0.0000
     24 C          -0.7528   16.9882   21.8299 C.3     1  UNL1        0.0000
     25 H          -1.5900   17.6185   21.5483 H       1  UNL1        0.0000
     26 H          -0.3437   17.3862   22.7536 H       1  UNL1        0.0000
     27 H          -1.1378   15.9968   22.0436 H       1  UNL1        0.0000
     28 C           0.2032   18.7420   16.8644 C.3     1  UNL1        0.0000
     29 H           0.2505   19.6551   17.4472 H       1  UNL1        0.0000
     30 H          -0.0826   19.0163   15.8533 H       1  UNL1        0.0000
     31 H           1.2063   18.3303   16.8279 H       1  UNL1        0.0000
     32 C          -1.7338   16.4027   16.2215 C.3     1  UNL1        0.0000
     33 H          -0.9394   15.8623   15.7142 H       1  UNL1        0.0000
     34 H          -2.2649   16.9907   15.4791 H       1  UNL1        0.0000
     35 H          -2.4236   15.6631   16.6148 H       1  UNL1        0.0000
     36 C          -2.4431   18.4407   18.4679 C.3     1  UNL1        0.0000
     37 H          -3.2663   17.7862   18.7342 H       1  UNL1        0.0000
     38 H          -2.8387   19.2050   17.8054 H       1  UNL1        0.0000
     39 H          -2.1053   18.9350   19.3731 H       1  UNL1        0.0000
     40 C          -4.0317   13.6543   20.3754 C.3     1  UNL1        0.0000
     41 C          -3.9255   12.7334   21.5990 C.3     1  UNL1        0.0000
     42 H          -3.6270   11.7290   21.3122 H       1  UNL1        0.0000
     43 H          -4.8847   12.6717   22.1097 H       1  UNL1        0.0000
     44 H          -3.1874   13.1227   22.2972 H       1  UNL1        0.0000
     45 C          -5.0502   13.0783   19.3810 C.3     1  UNL1        0.0000
     46 H          -5.1158   13.7154   18.5010 H       1  UNL1        0.0000
     47 H          -6.0355   13.0217   19.8398 H       1  UNL1        0.0000
     48 H          -4.7666   12.0802   19.0584 H       1  UNL1        0.0000
     49 C          -4.5458   15.0172   20.8472 C.3     1  UNL1        0.0000
     50 H          -3.8655   15.4629   21.5685 H       1  UNL1        0.0000
     51 H          -5.5149   14.8945   21.3279 H       1  UNL1        0.0000
     52 H          -4.6702   15.6981   20.0086 H       1  UNL1        0.0000
     53 C          -0.2754   11.3298   18.0275 C.3     1  UNL1        0.0000
     54 H           0.5785   11.6123   17.4006 H       1  UNL1        0.0000
     55 C           1.9912   11.3123   20.1354 C.3     1  UNL1        0.0000
     56 H           2.7209   11.5387   19.3617 H       1  UNL1        0.0000
     57 H           2.5052   10.7779   20.9286 H       1  UNL1        0.0000
     58 H           1.6654   12.2640   20.5423 H       1  UNL1        0.0000
     59 C           1.1294    8.6291   18.8221 C.3     1  UNL1        0.0000
     60 H           0.3137    7.9975   18.4871 H       1  UNL1        0.0000
     61 H           1.6551    8.0935   19.6062 H       1  UNL1        0.0000
     62 H           1.8171    8.7426   17.9909 H       1  UNL1        0.0000
     63 C          -0.7160   10.0050   20.8938 C.3     1  UNL1        0.0000
     64 H          -1.0539   10.9421   21.3237 H       1  UNL1        0.0000
     65 H          -0.2439    9.4320   21.6864 H       1  UNL1        0.0000
     66 H          -1.5911    9.4516   20.5693 H       1  UNL1        0.0000
     67 C          -2.5560   11.7936   15.9654 C.3     1  UNL1        0.0000
     68 H          -3.2133   12.2927   16.6690 H       1  UNL1        0.0000
     69 H          -3.1723   11.3713   15.1773 H       1  UNL1        0.0000
     70 H          -1.9255   12.5576   15.5209 H       1  UNL1        0.0000
     71 C          -0.4793    9.5544   15.4953 C.3     1  UNL1        0.0000
     72 H           0.0716   10.2597   14.8809 H       1  UNL1        0.0000
     73 H          -1.1209    8.9812   14.8338 H       1  UNL1        0.0000
     74 H           0.2361    8.8677   15.9333 H       1  UNL1        0.0000
     75 C          -2.6586    9.1780   17.6518 C.3     1  UNL1        0.0000
     76 H          -2.0985    8.4253   18.1968 H       1  UNL1        0.0000
     77 H          -3.2527    8.6643   16.9016 H       1  UNL1        0.0000
     78 H          -3.3510    9.6398   18.3477 H       1  UNL1        0.0000
@<TRIPOS>BOND
     1    73    71    1
     2    72    71    1
     3    69    67    1
     4    34    32    1
     5    71    74    1
     6    71     5    1
     7    70    67    1
     8    33    32    1
     9    30    28    1
    10    67    68    1
    11    67     5    1
    12    32    35    1
    13    32     3    1
    14    31    28    1
    15     5    75    1
    16     5    53    1
    17    28    29    1
    18    28     3    1
    19    77    75    1
    20    54    53    1
    21     1     6    1
    22     3    36    1
    23     3    14    1
    24    75    76    1
    25    75    78    1
    26    38    36    1
    27    62    59    1
    28    53    13    1
    29    53     4    1
    30    15    14    1
    31     6    13   ar
    32     6     7   ar
    33    36    37    1
    34    36    39    1
    35    60    59    1
    36    46    45    1
    37    13    11   ar
    38    14     7    1
    39    14     2    1
    40    59     4    1
    41    59    61    1
    42     7     8   ar
    43    48    45    1
    44    11    12    1
    45    11    10   ar
    46    56    55    1
    47    45    47    1
    48    45    40    1
    49     4    55    1
    50     4    63    1
    51    17    16    1
    52     8    10   ar
    53     8     9    1
    54    10    40    1
    55    52    49    1
    56    19    16    1
    57    55    58    1
    58    55    57    1
    59    23    20    1
    60    16     2    1
    61    16    18    1
    62    40    49    1
    63    40    41    1
    64     2    20    1
    65     2    24    1
    66    66    63    1
    67    49    51    1
    68    49    50    1
    69    63    64    1
    70    63    65    1
    71    20    21    1
    72    20    22    1
    73    42    41    1
    74    25    24    1
    75    41    43    1
    76    41    44    1
    77    24    27    1
    78    24    26    1
