@<TRIPOS>MOLECULE
1
 24 25 0 0 0
SMALL
GASTEIGER

@<TRIPOS>ATOM
      1 SI          0.3626    2.2619    1.7597 Si      1  UNL1        0.0000
      2 C           1.5680    2.6408    0.3277 C.ar    1  UNL1        0.0000
      3 C           2.4340    3.7294    0.3779 C.ar    1  UNL1        0.0000
      4 C           3.2788    4.0223   -0.6775 C.ar    1  UNL1        0.0000
      5 C           3.2749    3.2272   -1.8117 C.ar    1  UNL1        0.0000
      6 C           2.4134    2.1459   -1.8837 C.ar    1  UNL1        0.0000
      7 C           1.5697    1.8608   -0.8245 C.ar    1  UNL1        0.0000
      8 C          -0.9191    3.6798    1.7248 C.ar    1  UNL1        0.0000
      9 C          -1.5458    4.0323    0.5336 C.ar    1  UNL1        0.0000
     10 C          -2.4838    5.0480    0.4943 C.ar    1  UNL1        0.0000
     11 C          -2.8112    5.7329    1.6524 C.ar    1  UNL1        0.0000
     12 C          -2.1914    5.3996    2.8454 C.ar    1  UNL1        0.0000
     13 C          -1.2534    4.3835    2.8787 C.ar    1  UNL1        0.0000
     14 H          -0.3819    1.0724    1.2378 H       1  UNL1        0.0000
     15 H           2.4433    4.3524    1.2606 H       1  UNL1        0.0000
     16 H           3.9443    4.8717   -0.6168 H       1  UNL1        0.0000
     17 H           3.9371    3.4504   -2.6358 H       1  UNL1        0.0000
     18 H           2.3992    1.5238   -2.7676 H       1  UNL1        0.0000
     19 H           0.8969    1.0184   -0.8944 H       1  UNL1        0.0000
     20 H          -1.2886    3.5025   -0.3717 H       1  UNL1        0.0000
     21 H          -2.9611    5.3072   -0.4399 H       1  UNL1        0.0000
     22 H          -3.5444    6.5259    1.6247 H       1  UNL1        0.0000
     23 H          -2.4398    5.9342    3.7508 H       1  UNL1        0.0000
     24 H          -0.7559    4.1245    3.8108 H       1  UNL1        0.0000
@<TRIPOS>BOND
     1    18     6    1
     2    17     5    1
     3     6     5   ar
     4     6     7   ar
     5     5     4   ar
     6    19     7    1
     7     7     2   ar
     8     4    16    1
     9     4     3   ar
    10    21    10    1
    11    20     9    1
    12     2     3   ar
    13     2     1    1
    14     3    15    1
    15    10     9   ar
    16    10    11   ar
    17     9     8   ar
    18    14     1    1
    19    22    11    1
    20    11    12   ar
    21     8     1    1
    22     8    13   ar
    23    12    13   ar
    24    12    23    1
    25    13    24    1
