@<TRIPOS>MOLECULE
1
 24 25 0 0 0
SMALL
GASTEIGER

@<TRIPOS>ATOM
      1 SI          6.4962    3.3901    2.7014 Si      1  UNL1        0.0000
      2 C           5.6847    1.7167    2.2469 C.ar    1  UNL1        0.0000
      3 C           5.4731    1.3562    0.9205 C.ar    1  UNL1        0.0000
      4 C           4.8712    0.1533    0.5958 C.ar    1  UNL1        0.0000
      5 C           4.4675   -0.7135    1.5971 C.ar    1  UNL1        0.0000
      6 C           4.6723   -0.3707    2.9236 C.ar    1  UNL1        0.0000
      7 C           5.2764    0.8323    3.2391 C.ar    1  UNL1        0.0000
      8 C           7.6870    3.7175    1.2437 C.ar    1  UNL1        0.0000
      9 C           8.7730    2.8795    1.0079 C.ar    1  UNL1        0.0000
     10 C           9.6330    3.1008   -0.0519 C.ar    1  UNL1        0.0000
     11 C           9.4240    4.1740   -0.9029 C.ar    1  UNL1        0.0000
     12 C           8.3460    5.0152   -0.6878 C.ar    1  UNL1        0.0000
     13 C           7.4890    4.7843    0.3743 C.ar    1  UNL1        0.0000
     14 H           5.3961    4.3734    2.4421 H       1  UNL1        0.0000
     15 H           5.7894    2.0276    0.1361 H       1  UNL1        0.0000
     16 H           4.7165   -0.1107   -0.4409 H       1  UNL1        0.0000
     17 H           3.9980   -1.6537    1.3447 H       1  UNL1        0.0000
     18 H           4.3604   -1.0451    3.7091 H       1  UNL1        0.0000
     19 H           5.4544    1.1131    4.2694 H       1  UNL1        0.0000
     20 H           8.9402    2.0437    1.6721 H       1  UNL1        0.0000
     21 H          10.4709    2.4377   -0.2170 H       1  UNL1        0.0000
     22 H          10.0967    4.3529   -1.7297 H       1  UNL1        0.0000
     23 H           8.1733    5.8524   -1.3499 H       1  UNL1        0.0000
     24 H           6.6452    5.4423    0.5277 H       1  UNL1        0.0000
@<TRIPOS>BOND
     1    22    11    1
     2    23    12    1
     3    11    12   ar
     4    11    10   ar
     5    12    13   ar
     6    16     4    1
     7    21    10    1
     8    10     9   ar
     9    15     3    1
    10    13    24    1
    11    13     8   ar
    12     4     3   ar
    13     4     5   ar
    14     3     2   ar
    15     9     8   ar
    16     9    20    1
    17     8     1    1
    18    17     5    1
    19     5     6   ar
    20     2     1    1
    21     2     7   ar
    22    14     1    1
    23     6     7   ar
    24     6    18    1
    25     7    19    1
