@<TRIPOS>MOLECULE
2
 27 28 0 0 0
SMALL
GASTEIGER

@<TRIPOS>ATOM
      1 SI          2.2474   19.6896   16.0421 Si      1  UNL1        0.0000
      2 SI          4.1397   20.2979   17.3679 Si      1  UNL1        0.0000
      3 SI          5.9373   19.3101   16.1325 Si      1  UNL1        0.0000
      4 C           0.5610   19.9647   16.8969 C.3     1  UNL1        0.0000
      5 H          -0.2594   19.5778   16.2984 H       1  UNL1        0.0000
      6 H           0.3649   21.0167   17.0711 H       1  UNL1        0.0000
      7 H           0.5276   19.4601   17.8562 H       1  UNL1        0.0000
      8 C           2.0855   20.6307   14.3714 C.3     1  UNL1        0.0000
      9 H           1.2796   20.2340   13.7587 H       1  UNL1        0.0000
     10 H           2.9976   20.5667   13.7865 H       1  UNL1        0.0000
     11 H           1.8749   21.6837   14.5354 H       1  UNL1        0.0000
     12 C           2.2795   17.8280   15.5927 C.3     1  UNL1        0.0000
     13 H           2.3744   17.2215   16.4876 H       1  UNL1        0.0000
     14 H           3.1204   17.5894   14.9501 H       1  UNL1        0.0000
     15 H           1.3756   17.5116   15.0784 H       1  UNL1        0.0000
     16 C           7.6658   20.0847   16.4261 C.3     1  UNL1        0.0000
     17 H           8.3623   19.8275   15.6328 H       1  UNL1        0.0000
     18 H           8.0973   19.7322   17.3562 H       1  UNL1        0.0000
     19 H           7.6231   21.1673   16.4820 H       1  UNL1        0.0000
     20 C           6.0946   17.4624   16.6075 C.3     1  UNL1        0.0000
     21 H           5.1834   16.9232   16.3713 H       1  UNL1        0.0000
     22 H           6.2714   17.3478   17.6718 H       1  UNL1        0.0000
     23 H           6.9111   16.9712   16.0845 H       1  UNL1        0.0000
     24 C           5.7516   19.3263   14.2175 C.3     1  UNL1        0.0000
     25 H           5.8167   20.3313   13.8113 H       1  UNL1        0.0000
     26 H           4.7953   18.9126   13.9156 H       1  UNL1        0.0000
     27 H           6.5262   18.7335   13.7364 H       1  UNL1        0.0000
@<TRIPOS>BOND
     1    27    24    1
     2     9     8    1
     3    10     8    1
     4    25    24    1
     5    26    24    1
     6    24     3    1
     7     8    11    1
     8     8     1    1
     9    14    12    1
    10    15    12    1
    11    12     1    1
    12    12    13    1
    13    17    16    1
    14     1     4    1
    15     1     2    1
    16    23    20    1
    17     3    16    1
    18     3    20    1
    19     3     2    1
    20     5     4    1
    21    21    20    1
    22    16    19    1
    23    16    18    1
    24    20    22    1
    25     4     6    1
    26     4     7    1
    27     2    20    0
    28     2    12    0
