@<TRIPOS>MOLECULE
1
 13 12 0 0 0
SMALL
GASTEIGER

@<TRIPOS>ATOM
      1 SI         12.2056    3.2048    6.2678 Si      1  UNL1        0.0000
      2 C          13.2290    1.7092    6.9386 C.3     1  UNL1        0.0000
      3 C          10.5989    3.2047    7.3458 C.3     1  UNL1        0.0000
      4 H          13.3130    1.7589    8.0205 H       1  UNL1        0.0000
      5 H          14.2375    1.7168    6.5365 H       1  UNL1        0.0000
      6 H          12.7891    0.7480    6.6914 H       1  UNL1        0.0000
      7 H           9.9825    2.3302    7.1568 H       1  UNL1        0.0000
      8 H          10.8415    3.2047    8.4049 H       1  UNL1        0.0000
      9 C          13.2289    4.7004    6.9386 C.3     1  UNL1        0.0000
     10 H           9.9824    4.0792    7.1567 H       1  UNL1        0.0000
     11 H          13.3129    4.6507    8.0205 H       1  UNL1        0.0000
     12 H          14.2374    4.6928    6.5366 H       1  UNL1        0.0000
     13 H          12.7890    5.6615    6.6913 H       1  UNL1        0.0000
@<TRIPOS>BOND
     1     1     2    1
     2     1     9    1
     3     1     3    1
     4     5     2    1
     5    12     9    1
     6    13     9    1
     7     6     2    1
     8     2     4    1
     9     9    11    1
    10    10     3    1
    11     7     3    1
    12     3     8    1
