@<TRIPOS>MOLECULE
1
 28 29 0 0 0
SMALL
GASTEIGER

@<TRIPOS>ATOM
      1 SI          3.8595    5.6253    5.9644 Si      1  UNL1        0.0000
      2 C           3.1524    5.0771    2.6620 C.2     1  UNL1        0.0000
      3 O           3.4941    4.5840    1.6445 O.2     1  UNL1        0.0000
      4 C           4.0886    6.0224    3.5944 C.2     1  UNL1        0.0000
      5 O           5.2091    6.3177    3.3368 O.2     1  UNL1        0.0000
      6 C           2.7987    5.5350    7.5418 C.ar    1  UNL1        0.0000
      7 C           2.9741    6.4385    8.5841 C.ar    1  UNL1        0.0000
      8 C           2.2262    6.3538    9.7468 C.ar    1  UNL1        0.0000
      9 C           1.2879    5.3468    9.8923 C.ar    1  UNL1        0.0000
     10 C           1.1129    4.4247    8.8727 C.ar    1  UNL1        0.0000
     11 C           1.8602    4.5231    7.7132 C.ar    1  UNL1        0.0000
     12 C           4.9573    4.0759    6.0808 C.ar    1  UNL1        0.0000
     13 C           5.6591    3.8033    7.2523 C.ar    1  UNL1        0.0000
     14 C           6.4746    2.6916    7.3580 C.ar    1  UNL1        0.0000
     15 C           6.6023    1.8241    6.2862 C.ar    1  UNL1        0.0000
     16 C           5.9050    2.0744    5.1165 C.ar    1  UNL1        0.0000
     17 C           5.0902    3.1888    5.0181 C.ar    1  UNL1        0.0000
     18 H           4.7816    6.7672    6.2661 H       1  UNL1        0.0000
     19 H           3.7245    7.2117    8.4909 H       1  UNL1        0.0000
     20 H           2.3790    7.0698   10.5425 H       1  UNL1        0.0000
     21 H           0.7035    5.2755   10.7984 H       1  UNL1        0.0000
     22 H           0.3918    3.6275    8.9880 H       1  UNL1        0.0000
     23 H           1.7243    3.8042    6.9186 H       1  UNL1        0.0000
     24 H           5.5588    4.4759    8.0922 H       1  UNL1        0.0000
     25 H           7.0124    2.4999    8.2761 H       1  UNL1        0.0000
     26 H           7.2406    0.9555    6.3636 H       1  UNL1        0.0000
     27 H           5.9973    1.3991    4.2781 H       1  UNL1        0.0000
     28 H           4.5401    3.3747    4.1052 H       1  UNL1        0.0000
@<TRIPOS>BOND
     1     3     2    2
     2     2     4    1
     3     5     4    2
     4    28    17    1
     5    27    16    1
     6    17    16   ar
     7    17    12   ar
     8    16    15   ar
     9     1    12    1
    10     1    18    1
    11     1     6    1
    12    12    13   ar
    13    15    26    1
    14    15    14   ar
    15    23    11    1
    16    13    14   ar
    17    13    24    1
    18    14    25    1
    19     6    11   ar
    20     6     7   ar
    21    11    10   ar
    22    19     7    1
    23     7     8   ar
    24    10    22    1
    25    10     9   ar
    26     8     9   ar
    27     8    20    1
    28     9    21    1
    29     1     4    0
