@<TRIPOS>MOLECULE
1
 13 12 0 0 0
SMALL
GASTEIGER

@<TRIPOS>ATOM
      1 SI          0.0001    0.7701    8.6974 Si      1  UNL1        0.0000
      2 C          -1.4552   -0.4761    8.3922 C.3     1  UNL1        0.0000
      3 C           0.0002    0.8832   10.6441 C.3     1  UNL1        0.0000
      4 H          -2.4394   -0.0652    8.6017 H       1  UNL1        0.0000
      5 H          -1.3296   -1.3469    9.0299 H       1  UNL1        0.0000
      6 H          -1.4512   -0.8278    7.3646 H       1  UNL1        0.0000
      7 H          -0.8741    0.3945   11.0640 H       1  UNL1        0.0000
      8 H           0.0006    1.9086   11.0041 H       1  UNL1        0.0000
      9 C           1.4551   -0.4762    8.3919 C.3     1  UNL1        0.0000
     10 H           0.8741    0.3938   11.0640 H       1  UNL1        0.0000
     11 H           2.4394   -0.0655    8.6015 H       1  UNL1        0.0000
     12 H           1.3295   -1.3471    9.0296 H       1  UNL1        0.0000
     13 H           1.4510   -0.8278    7.3643 H       1  UNL1        0.0000
@<TRIPOS>BOND
     1    13     9    1
     2     6     2    1
     3     9    11    1
     4     9     1    1
     5     9    12    1
     6     2     4    1
     7     2     1    1
     8     2     5    1
     9     1     3    1
    10     3     8    1
    11     3    10    1
    12     3     7    1
