@<TRIPOS>MOLECULE
2
 10 9 0 0 0
SMALL
GASTEIGER

@<TRIPOS>ATOM
      1 CL          5.7880    6.6649    2.5643 Cl      1  UNL1        0.0000
      2 SI          4.5593    5.2915    3.5984 Si      1  UNL1        0.0000
      3 C           2.8480    5.8173    2.8473 C.3     1  UNL1        0.0000
      4 H           2.6881    6.8801    3.0048 H       1  UNL1        0.0000
      5 H           2.0260    5.2861    3.3159 H       1  UNL1        0.0000
      6 H           2.8054    5.6360    1.7775 H       1  UNL1        0.0000
      7 C           4.4922    6.1251    5.3464 C.3     1  UNL1        0.0000
      8 H           4.3223    7.1939    5.2556 H       1  UNL1        0.0000
      9 H           5.4138    5.9861    5.9027 H       1  UNL1        0.0000
     10 H           3.6852    5.7068    5.9398 H       1  UNL1        0.0000
@<TRIPOS>BOND
     1     6     3    1
     2     1     2    1
     3     3     4    1
     4     3     5    1
     5     3     2    1
     6     2     7    1
     7     8     7    1
     8     7     9    1
     9     7    10    1
