@<TRIPOS>MOLECULE
1
 7 6 0 0 0
SMALL
GASTEIGER

@<TRIPOS>ATOM
      1 SI          3.7898    2.4381    4.2837 Si      1  UNL1        0.0000
      2 CL          2.3329    3.6018    5.2676 Cl      1  UNL1        0.0000
      3 CL          5.5041    2.8409    5.4348 Cl      1  UNL1        0.0000
      4 C           4.1324    3.6237    2.7876 C.3     1  UNL1        0.0000
      5 H           3.2812    3.6729    2.1154 H       1  UNL1        0.0000
      6 H           5.0021    3.3123    2.2191 H       1  UNL1        0.0000
      7 H           4.3190    4.6287    3.1578 H       1  UNL1        0.0000
@<TRIPOS>BOND
     1     5     4    1
     2     6     4    1
     3     4     7    1
     4     4     1    1
     5     1     2    1
     6     1     3    1
