@<TRIPOS>MOLECULE
1
 7 6 0 0 0
SMALL
GASTEIGER

@<TRIPOS>ATOM
      1 SI          4.0067    5.9578   -0.7464 Si      1  UNL1        0.0000
      2 C           2.1178    6.1982   -1.1154 C.3     1  UNL1        0.0000
      3 H           1.9073    5.9323   -2.1480 H       1  UNL1        0.0000
      4 H           1.8172    7.2317   -0.9727 H       1  UNL1        0.0000
      5 H           1.5021    5.5699   -0.4791 H       1  UNL1        0.0000
      6 CL          4.8019    7.2027   -2.2406 Cl      1  UNL1        0.0000
      7 CL          4.2950    4.0555   -1.5937 Cl      1  UNL1        0.0000
@<TRIPOS>BOND
     1     6     1    1
     2     3     2    1
     3     7     1    1
     4     2     4    1
     5     2     1    1
     6     2     5    1
