@<TRIPOS>MOLECULE
1
 4 3 0 0 0
SMALL
GASTEIGER

@<TRIPOS>ATOM
      1 SI          8.7083    3.9202    4.1588 Si      1  UNL1        0.0000
      2 CL          9.0415    5.5836    5.3526 Cl      1  UNL1        0.0000
      3 CL          7.8836    2.5634    5.5043 Cl      1  UNL1        0.0000
      4 CL         10.6450    3.1618    3.9361 Cl      1  UNL1        0.0000
@<TRIPOS>BOND
     1     4     1    1
     2     1     2    1
     3     1     3    1
