@<TRIPOS>MOLECULE
4
 4 3 0 0 0
SMALL
GASTEIGER

@<TRIPOS>ATOM
      1 CL          3.4727    2.2781   11.9451 Cl      1  UNL1        0.0000
      2 CL          2.9855    4.9016   10.1409 Cl      1  UNL1        0.0000
      3 CL          2.6848    5.0837   13.3582 Cl      1  UNL1        0.0000
      4 SI          2.1449    3.8752   11.7615 Si      1  UNL1        0.0000
@<TRIPOS>BOND
     1     2     4    1
     2     4     1    1
     3     4     3    1
