@<TRIPOS>MOLECULE
1
 4 3 0 0 0
SMALL
GASTEIGER

@<TRIPOS>ATOM
      1 SI          3.7177   10.2217    0.3277 Si      1  UNL1        0.0000
      2 H           4.3637   11.0931    1.3455 H       1  UNL1        0.0000
      3 H           2.2888   10.5990    0.4930 H       1  UNL1        0.0000
      4 H           4.0520   10.9582   -0.9197 H       1  UNL1        0.0000
@<TRIPOS>BOND
     1     4     1    1
     2     1     3    1
     3     1     2    1
