@<TRIPOS>MOLECULE
1
 22 22 0 0 0
SMALL
GASTEIGER

@<TRIPOS>ATOM
      1 SI          1.2598   -1.7125    3.7638 Si      1  UNL1        0.0000
      2 P           1.9271   -1.1561    1.6240 P.3     1  UNL1        0.0000
      3 H           1.0666   -0.0583    1.5977 H       1  UNL1        0.0000
      4 C           2.0950   -3.3876    4.2102 C.3     1  UNL1        0.0000
      5 H           3.1654   -3.3836    4.0585 H       1  UNL1        0.0000
      6 H           1.6798   -4.1878    3.6068 H       1  UNL1        0.0000
      7 H           1.9001   -3.6206    5.2506 H       1  UNL1        0.0000
      8 C          -0.5809   -2.2851    3.6192 C.3     1  UNL1        0.0000
      9 H          -1.0658   -2.2972    4.5889 H       1  UNL1        0.0000
     10 H          -0.6315   -3.2884    3.2074 H       1  UNL1        0.0000
     11 H          -1.1584   -1.6399    2.9674 H       1  UNL1        0.0000
     12 C           0.8086   -2.2884    0.7652 C.ar    1  UNL1        0.0000
     13 C           1.2176   -3.6086    0.5886 C.ar    1  UNL1        0.0000
     14 H           2.1845   -3.9134    0.9661 H       1  UNL1        0.0000
     15 C           0.3999   -4.5164   -0.0540 C.ar    1  UNL1        0.0000
     16 H           0.7241   -5.5400   -0.1791 H       1  UNL1        0.0000
     17 C          -0.8341   -4.1160   -0.5418 C.ar    1  UNL1        0.0000
     18 H          -1.4750   -4.8256   -1.0444 H       1  UNL1        0.0000
     19 C          -1.2390   -2.8006   -0.3874 C.ar    1  UNL1        0.0000
     20 H          -2.1983   -2.4822   -0.7712 H       1  UNL1        0.0000
     21 C          -0.4240   -1.8905    0.2577 C.ar    1  UNL1        0.0000
     22 H          -0.7454   -0.8647    0.3764 H       1  UNL1        0.0000
@<TRIPOS>BOND
     1    18    17    1
     2    20    19    1
     3    17    19   ar
     4    17    15   ar
     5    19    21   ar
     6    16    15    1
     7    15    13   ar
     8    21    22    1
     9    21    12   ar
    10    13    12   ar
    11    13    14    1
    12    12     2    1
    13     3     2    1
    14     2     1    1
    15    11     8    1
    16    10     8    1
    17     6     4    1
    18     8     1    1
    19     8     9    1
    20     1     4    1
    21     5     4    1
    22     4     7    1
