@<TRIPOS>MOLECULE
1
 11 10 0 0 0
SMALL
GASTEIGER

@<TRIPOS>ATOM
      1 SI         -0.7805    2.7159    9.6326 Si      1  UNL1        0.0000
      2 O          -0.7449    3.9140   10.7652 O.3     1  UNL1        0.0000
      3 H           0.0113    4.0331   11.3353 H       1  UNL1        0.0000
      4 C          -2.5990    2.9496    9.1013 C.3     1  UNL1        0.0000
      5 H          -3.2569    2.2989    9.6623 H       1  UNL1        0.0000
      6 H          -2.7477    2.7657    8.0465 H       1  UNL1        0.0000
      7 H          -2.8890    3.9717    9.3089 H       1  UNL1        0.0000
      8 C           0.4088    3.2748    8.2220 C.3     1  UNL1        0.0000
      9 H           0.5785    4.3440    8.2847 H       1  UNL1        0.0000
     10 H           0.0110    3.0672    7.2369 H       1  UNL1        0.0000
     11 H           1.3694    2.7750    8.3065 H       1  UNL1        0.0000
@<TRIPOS>BOND
     1    10     8    1
     2     6     4    1
     3     8     9    1
     4     8    11    1
     5     8     1    1
     6     4     7    1
     7     4     1    1
     8     4     5    1
     9     1     2    1
    10     2     3    1
