@<TRIPOS>MOLECULE
1
 21 21 0 0 0
SMALL
GASTEIGER

@<TRIPOS>ATOM
      1 SI          2.5292    5.1936    4.1772 Si      1  UNL1        0.0000
      2 C           1.3586    6.6393    3.6598 C.3     1  UNL1        0.0000
      3 H           1.6632    7.0960    2.7233 H       1  UNL1        0.0000
      4 H           1.3760    7.4116    4.4230 H       1  UNL1        0.0000
      5 H           0.3332    6.3068    3.5500 H       1  UNL1        0.0000
      6 C           4.0912    5.4302    3.0723 C.3     1  UNL1        0.0000
      7 H           4.9569    4.9424    3.5063 H       1  UNL1        0.0000
      8 H           4.3458    6.4715    2.9155 H       1  UNL1        0.0000
      9 H           3.9167    4.9764    2.1005 H       1  UNL1        0.0000
     10 O           1.9712    3.6940    3.7436 O.3     1  UNL1        0.0000
     11 C           1.7777    3.1364    2.5336 C.ar    1  UNL1        0.0000
     12 C           1.9641    1.7621    2.3984 C.ar    1  UNL1        0.0000
     13 H           2.2946    1.1960    3.2559 H       1  UNL1        0.0000
     14 C           1.7401    1.1440    1.1832 C.ar    1  UNL1        0.0000
     15 H           1.8893    0.0780    1.0913 H       1  UNL1        0.0000
     16 C           1.3294    1.8839    0.0871 C.ar    1  UNL1        0.0000
     17 H           1.1546    1.3996   -0.8619 H       1  UNL1        0.0000
     18 C           1.1471    3.2500    0.2172 C.ar    1  UNL1        0.0000
     19 H           0.8294    3.8357   -0.6334 H       1  UNL1        0.0000
     20 C           1.3682    3.8759    1.4301 C.ar    1  UNL1        0.0000
     21 H           1.2264    4.9382    1.5394 H       1  UNL1        0.0000
@<TRIPOS>BOND
     1    17    16    1
     2    19    18    1
     3    16    18   ar
     4    16    14   ar
     5    18    20   ar
     6    15    14    1
     7    14    12   ar
     8    20    21    1
     9    20    11   ar
    10     9     6    1
    11    12    11   ar
    12    12    13    1
    13    11    10    1
    14     3     2    1
    15     8     6    1
    16     6     7    1
    17     6     1    1
    18     5     2    1
    19     2     1    1
    20     2     4    1
    21    10     1    1
