@<TRIPOS>MOLECULE
1
 23 22 0 0 0
SMALL
GASTEIGER

@<TRIPOS>ATOM
      1 SI          1.6780   -1.4474    5.7664 Si      1  UNL1        0.0000
      2 SI          2.7412   -0.1740    8.3993 Si      1  UNL1        0.0000
      3 O           2.2447   -0.3100    6.8532 O.3     1  UNL1        0.0000
      4 C          -0.2228   -1.5243    6.1427 C.3     1  UNL1        0.0000
      5 H          -0.4413   -0.8979    6.9990 H       1  UNL1        0.0000
      6 H          -0.5196   -2.5391    6.3799 H       1  UNL1        0.0000
      7 H          -0.8382   -1.1866    5.3167 H       1  UNL1        0.0000
      8 C           2.3747   -3.1069    6.4711 C.3     1  UNL1        0.0000
      9 H           2.0353   -3.2375    7.4929 H       1  UNL1        0.0000
     10 H           3.4597   -3.0891    6.4868 H       1  UNL1        0.0000
     11 H           2.0492   -3.9691    5.8994 H       1  UNL1        0.0000
     12 C           2.7819    1.6791    8.8406 C.3     1  UNL1        0.0000
     13 H           1.8326    2.1542    8.6168 H       1  UNL1        0.0000
     14 H           3.5529    2.2269    8.3093 H       1  UNL1        0.0000
     15 H           2.9709    1.8002    9.9027 H       1  UNL1        0.0000
     16 C           1.5246   -1.0167    9.6011 C.3     1  UNL1        0.0000
     17 H           0.5444   -0.5529    9.5464 H       1  UNL1        0.0000
     18 H           1.8666   -0.9378   10.6283 H       1  UNL1        0.0000
     19 H           1.3965   -2.0704    9.3763 H       1  UNL1        0.0000
     20 C           4.4825   -0.9452    8.5673 C.3     1  UNL1        0.0000
     21 H           4.4278   -1.9828    8.8825 H       1  UNL1        0.0000
     22 H           5.0941   -0.4171    9.2929 H       1  UNL1        0.0000
     23 H           5.0038   -0.9253    7.6143 H       1  UNL1        0.0000
@<TRIPOS>BOND
     1     7     4    1
     2     1     4    1
     3     1     8    1
     4     1     3    1
     5    11     8    1
     6     4     6    1
     7     4     5    1
     8     8    10    1
     9     8     9    1
    10     3     2    1
    11    23    20    1
    12    14    12    1
    13     2    20    1
    14     2    12    1
    15     2    16    1
    16    20    21    1
    17    20    22    1
    18    13    12    1
    19    12    15    1
    20    19    16    1
    21    17    16    1
    22    16    18    1
