@<TRIPOS>MOLECULE
1
 10 9 0 0 0
SMALL
GASTEIGER

@<TRIPOS>ATOM
      1 SI          5.5828   -0.0001    2.2401 Si      1  UNL1        0.0000
      2 CL          6.0222   -0.0002    0.1806 Cl      1  UNL1        0.0000
      3 C           6.6694    1.4729    2.8760 C.3     1  UNL1        0.0000
      4 H           7.6887    1.3544    2.5210 H       1  UNL1        0.0000
      5 H           6.6946    1.4755    3.9616 H       1  UNL1        0.0000
      6 H           6.3148    2.4398    2.5362 H       1  UNL1        0.0000
      7 C           6.6694   -1.4729    2.8762 C.3     1  UNL1        0.0000
      8 H           7.6888   -1.3544    2.5212 H       1  UNL1        0.0000
      9 H           6.6945   -1.4756    3.9617 H       1  UNL1        0.0000
     10 H           6.3150   -2.4399    2.5364 H       1  UNL1        0.0000
@<TRIPOS>BOND
     1     2     1    1
     2     1     3    1
     3     1     7    1
     4     4     3    1
     5     8     7    1
     6     6     3    1
     7    10     7    1
     8     3     5    1
     9     7     9    1
