@<TRIPOS>MOLECULE
1
 43 44 0 0 0
SMALL
GASTEIGER

@<TRIPOS>ATOM
      1 SI         -2.0071    5.9758   -3.8231 Si      1  UNL1        0.0000
      2 C          -3.1232    7.5415   -3.9062 C.3     1  UNL1        0.0000
      3 H          -3.8779    7.5399   -3.1295 H       1  UNL1        0.0000
      4 H          -3.6279    7.5892   -4.8643 H       1  UNL1        0.0000
      5 H          -2.5416    8.4513   -3.7942 H       1  UNL1        0.0000
      6 C          -0.3415    6.4808   -4.6382 C.3     1  UNL1        0.0000
      7 H           0.0420    7.4066   -4.2194 H       1  UNL1        0.0000
      8 H          -0.4527    6.6217   -5.7071 H       1  UNL1        0.0000
      9 H           0.4131    5.7171   -4.4831 H       1  UNL1        0.0000
     10 O          -1.7048    5.6675   -2.2250 O.2     1  UNL1        0.0000
     11 C          -0.5630    5.8325   -1.4989 C.2     1  UNL1        0.0000
     12 C          -0.4596    7.1664   -0.8242 C.3     1  UNL1        0.0000
     13 H           0.4478    7.2327   -0.2325 H       1  UNL1        0.0000
     14 H          -1.3227    7.3231   -0.1789 H       1  UNL1        0.0000
     15 H          -0.4620    7.9530   -1.5772 H       1  UNL1        0.0000
     16 C           0.3607    4.8804   -1.4128 C.2     1  UNL1        0.0000
     17 H           1.2359    5.0552   -0.8046 H       1  UNL1        0.0000
     18 C           0.2626    3.5508   -2.0766 C.3     1  UNL1        0.0000
     19 H           1.1628    3.3385   -2.6620 H       1  UNL1        0.0000
     20 H          -0.6174    3.5289   -2.7248 H       1  UNL1        0.0000
     21 P           0.0735    2.2196   -0.7687 P.3     1  UNL1        0.0000
     22 C           0.3380    0.7107   -1.7759 C.ar    1  UNL1        0.0000
     23 C           0.7563   -0.4381   -1.1067 C.ar    1  UNL1        0.0000
     24 H           0.9810   -0.3795   -0.0497 H       1  UNL1        0.0000
     25 C           0.8978   -1.6342   -1.7822 C.ar    1  UNL1        0.0000
     26 H           1.2350   -2.5148   -1.2544 H       1  UNL1        0.0000
     27 C           0.6039   -1.7056   -3.1351 C.ar    1  UNL1        0.0000
     28 H           0.7139   -2.6404   -3.6651 H       1  UNL1        0.0000
     29 C           0.1660   -0.5752   -3.8025 C.ar    1  UNL1        0.0000
     30 H          -0.0689   -0.6239   -4.8562 H       1  UNL1        0.0000
     31 C           0.0275    0.6259   -3.1278 C.ar    1  UNL1        0.0000
     32 H          -0.3127    1.4978   -3.6638 H       1  UNL1        0.0000
     33 C           1.7658    2.3708   -0.0603 C.ar    1  UNL1        0.0000
     34 C           1.8860    2.9130    1.2138 C.ar    1  UNL1        0.0000
     35 H           0.9913    3.2011    1.7492 H       1  UNL1        0.0000
     36 C           3.1323    3.0843    1.7896 C.ar    1  UNL1        0.0000
     37 H           3.2170    3.5077    2.7802 H       1  UNL1        0.0000
     38 C           4.2700    2.7087    1.0959 C.ar    1  UNL1        0.0000
     39 H           5.2447    2.8374    1.5437 H       1  UNL1        0.0000
     40 C           4.1573    2.1651   -0.1739 C.ar    1  UNL1        0.0000
     41 H           5.0451    1.8713   -0.7158 H       1  UNL1        0.0000
     42 C           2.9129    1.9975   -0.7520 C.ar    1  UNL1        0.0000
     43 H           2.8311    1.5683   -1.7414 H       1  UNL1        0.0000
@<TRIPOS>BOND
     1     8     6    1
     2     4     2    1
     3    30    29    1
     4     6     9    1
     5     6     7    1
     6     6     1    1
     7     2     1    1
     8     2     5    1
     9     2     3    1
    10     1    10    1
    11    29    27   ar
    12    29    31   ar
    13    28    27    1
    14    32    31    1
    15    27    25   ar
    16    31    22   ar
    17    20    18    1
    18    19    18    1
    19    10    11    1
    20    18    16    1
    21    18    21    1
    22    25    26    1
    23    25    23   ar
    24    22    23   ar
    25    22    21    1
    26    43    42    1
    27    15    12    1
    28    11    16    2
    29    11    12    1
    30    16    17    1
    31    23    24    1
    32    12    13    1
    33    12    14    1
    34    21    33    1
    35    42    40   ar
    36    42    33   ar
    37    41    40    1
    38    40    38   ar
    39    33    34   ar
    40    38    39    1
    41    38    36   ar
    42    34    35    1
    43    34    36   ar
    44    36    37    1
