@<TRIPOS>MOLECULE
2
 58 57 0 0 0
SMALL
GASTEIGER

@<TRIPOS>ATOM
      1 P           4.9513    4.7267   10.3234 P.3     1  UNL1        0.0000
      2 SI          2.7733    2.8504   11.4884 Si      1  UNL1        0.0000
      3 O           2.5759    1.6165   10.4294 O.3     1  UNL1        0.0000
      4 O           4.1463    2.3651   12.2411 O.3     1  UNL1        0.0000
      5 O           3.6581    3.9630   10.3162 O.3     1  UNL1        0.0000
      6 N           5.2988    5.6928   11.6284 N.3     1  UNL1        0.0000
      7 N           6.2489    3.6861   10.2074 N.3     1  UNL1        0.0000
      8 N           4.8148    5.8132    9.0673 N.3     1  UNL1        0.0000
      9 C           1.6945    1.2750    9.3724 C.3     1  UNL1        0.0000
     10 C           0.7610    2.4262    9.0115 C.3     1  UNL1        0.0000
     11 C           0.8851    0.0527    9.8143 C.3     1  UNL1        0.0000
     12 C           2.5754    0.9227    8.1660 C.3     1  UNL1        0.0000
     13 C           4.3393    1.2622   13.1167 C.3     1  UNL1        0.0000
     14 C           3.0291    0.8068   13.7526 C.3     1  UNL1        0.0000
     15 C           4.9397    0.1107   12.3043 C.3     1  UNL1        0.0000
     16 C           5.3153    1.7122   14.2074 C.3     1  UNL1        0.0000
     17 C           5.8460    5.0949   12.8337 C.3     1  UNL1        0.0000
     18 C           4.3164    6.7290   11.9074 C.3     1  UNL1        0.0000
     19 C           7.5901    4.2214   10.1072 C.3     1  UNL1        0.0000
     20 C           6.0637    2.4181    9.5310 C.3     1  UNL1        0.0000
     21 C           3.9439    5.5612    7.9414 C.3     1  UNL1        0.0000
     22 C           5.7995    6.8477    8.8522 C.3     1  UNL1        0.0000
     23 H           0.1694    2.1669    8.1374 H       1  UNL1        0.0000
     24 H           1.3411    3.3199    8.7980 H       1  UNL1        0.0000
     25 H           0.0964    2.6458    9.8428 H       1  UNL1        0.0000
     26 H           0.2161   -0.2651    9.0196 H       1  UNL1        0.0000
     27 H           0.2966    0.2987   10.6934 H       1  UNL1        0.0000
     28 H           1.5533   -0.7679   10.0645 H       1  UNL1        0.0000
     29 H           1.9620    0.5830    7.3361 H       1  UNL1        0.0000
     30 H           3.2757    0.1353    8.4338 H       1  UNL1        0.0000
     31 H           3.1395    1.7989    7.8549 H       1  UNL1        0.0000
     32 H           3.2138   -0.0119   14.4433 H       1  UNL1        0.0000
     33 H           2.3396    0.4754   12.9827 H       1  UNL1        0.0000
     34 H           2.5665    1.6296   14.2906 H       1  UNL1        0.0000
     35 H           5.0712   -0.7668   12.9316 H       1  UNL1        0.0000
     36 H           5.9034    0.4029   11.8963 H       1  UNL1        0.0000
     37 H           4.2699   -0.1299   11.4842 H       1  UNL1        0.0000
     38 H           5.5202    0.8908   14.8886 H       1  UNL1        0.0000
     39 H           4.8861    2.5366   14.7698 H       1  UNL1        0.0000
     40 H           6.2503    2.0431   13.7626 H       1  UNL1        0.0000
     41 H           6.5227    5.8114   13.3071 H       1  UNL1        0.0000
     42 H           6.3895    4.1909   12.5766 H       1  UNL1        0.0000
     43 H           5.0604    4.8317   13.5437 H       1  UNL1        0.0000
     44 H           4.8150    7.5643   12.4036 H       1  UNL1        0.0000
     45 H           3.5101    6.3604   12.5508 H       1  UNL1        0.0000
     46 H           3.8757    7.0744   10.9748 H       1  UNL1        0.0000
     47 H           7.9024    4.3572    9.0655 H       1  UNL1        0.0000
     48 H           7.6405    5.1783   10.6200 H       1  UNL1        0.0000
     49 H           8.2886    3.5286   10.5835 H       1  UNL1        0.0000
     50 H           5.0520    2.0681    9.7163 H       1  UNL1        0.0000
     51 H           6.7691    1.6938    9.9424 H       1  UNL1        0.0000
     52 H           6.2370    2.4945    8.4509 H       1  UNL1        0.0000
     53 H           4.5112    5.2819    7.0466 H       1  UNL1        0.0000
     54 H           3.2607    4.7568    8.2000 H       1  UNL1        0.0000
     55 H           3.3591    6.4571    7.7193 H       1  UNL1        0.0000
     56 H           6.3699    6.9982    9.7652 H       1  UNL1        0.0000
     57 H           6.4839    6.5944    8.0347 H       1  UNL1        0.0000
     58 H           5.2953    7.7833    8.5955 H       1  UNL1        0.0000
@<TRIPOS>BOND
     1    53    21    1
     2    29    12    1
     3    55    21    1
     4    31    12    1
     5    21    54    1
     6    21     8    1
     7    57    22    1
     8    23    10    1
     9    12    30    1
    10    12     9    1
    11    52    20    1
    12    58    22    1
    13    24    10    1
    14    22     8    1
    15    22    56    1
    16    10     9    1
    17    10    25    1
    18    26    11    1
    19    47    19    1
    20     8     1    1
    21     9    11    1
    22     9     3    1
    23    20    50    1
    24    20    51    1
    25    20     7    1
    26    11    28    1
    27    11    27    1
    28    19     7    1
    29    19    49    1
    30    19    48    1
    31     7     1    1
    32     5     1    1
    33     5     2    1
    34     1     6    1
    35     3     2    1
    36    46    18    1
    37    37    15    1
    38     2     4    1
    39     6    18    1
    40     6    17    1
    41    36    15    1
    42    18    44    1
    43    18    45    1
    44     4    13    1
    45    15    35    1
    46    15    13    1
    47    42    17    1
    48    17    41    1
    49    17    43    1
    50    33    14    1
    51    13    14    1
    52    13    16    1
    53    14    34    1
    54    14    32    1
    55    40    16    1
    56    16    39    1
    57    16    38    1
