@<TRIPOS>MOLECULE
1
 14 14 0 0 0
SMALL
GASTEIGER

@<TRIPOS>ATOM
      1 SI          1.6563    6.0820    6.8137 Si      1  UNL1        0.0000
      2 C           1.0572    6.5139    8.5805 C.ar    1  UNL1        0.0000
      3 C          -0.6233    7.4272   10.0675 C.ar    1  UNL1        0.0000
      4 H          -1.5895    7.8936   10.2037 H       1  UNL1        0.0000
      5 C           1.8379    6.2470    9.7012 C.ar    1  UNL1        0.0000
      6 H           2.8045    5.7808    9.5669 H       1  UNL1        0.0000
      7 C          -0.1766    7.1198    8.7944 C.ar    1  UNL1        0.0000
      8 H          -0.7963    7.3634    7.9429 H       1  UNL1        0.0000
      9 C           0.1665    7.1419   11.1679 C.ar    1  UNL1        0.0000
     10 H          -0.1788    7.3787   12.1645 H       1  UNL1        0.0000
     11 C           1.4063    6.5549   10.9788 C.ar    1  UNL1        0.0000
     12 H           2.0349    6.3355   11.8317 H       1  UNL1        0.0000
     13 H           2.7009    7.1136    6.5910 H       1  UNL1        0.0000
     14 H           0.5521    6.6588    5.9991 H       1  UNL1        0.0000
@<TRIPOS>BOND
     1    14     1    1
     2    13     1    1
     3     1     2    1
     4     8     7    1
     5     2     7   ar
     6     2     5   ar
     7     7     3   ar
     8     6     5    1
     9     5    11   ar
    10     3     4    1
    11     3     9   ar
    12    11     9   ar
    13    11    12    1
    14     9    10    1
