@<TRIPOS>MOLECULE
1
 40 41 0 0 0
SMALL
GASTEIGER

@<TRIPOS>ATOM
      1 SI         11.2351    0.3202    2.9129 Si      1  UNL1        0.0000
      2 SI         10.9778   -0.4809    0.6844 Si      1  UNL1        0.0000
      3 SI          9.4096   -0.5114    4.2023 Si      1  UNL1        0.0000
      4 SI         13.2071   -0.6863    3.8053 Si      1  UNL1        0.0000
      5 C          10.4253   -2.3082    0.6338 C.3     1  UNL1        0.0000
      6 H           9.4230   -2.4183    1.0361 H       1  UNL1        0.0000
      7 H          11.0860   -2.9359    1.2222 H       1  UNL1        0.0000
      8 H          10.4157   -2.7008   -0.3790 H       1  UNL1        0.0000
      9 C           9.6974    0.4918   -0.3502 C.3     1  UNL1        0.0000
     10 H           9.5592    0.0527   -1.3354 H       1  UNL1        0.0000
     11 H           9.9944    1.5262   -0.4965 H       1  UNL1        0.0000
     12 H           8.7273    0.5049    0.1370 H       1  UNL1        0.0000
     13 C          12.6383   -0.3598   -0.2661 C.3     1  UNL1        0.0000
     14 H          12.5349   -0.6721   -1.3017 H       1  UNL1        0.0000
     15 H          13.3972   -0.9879    0.1901 H       1  UNL1        0.0000
     16 H          13.0151    0.6588   -0.2685 H       1  UNL1        0.0000
     17 C           9.3747   -2.3930    4.5217 C.3     1  UNL1        0.0000
     18 H           8.5028   -2.6928    5.0964 H       1  UNL1        0.0000
     19 H          10.2549   -2.7090    5.0731 H       1  UNL1        0.0000
     20 H           9.3573   -2.9451    3.5880 H       1  UNL1        0.0000
     21 C           9.4421    0.3186    5.9347 C.3     1  UNL1        0.0000
     22 H           8.4639    0.3268    6.4090 H       1  UNL1        0.0000
     23 H           9.7909    1.3481    5.8697 H       1  UNL1        0.0000
     24 H          10.1211   -0.2050    6.6002 H       1  UNL1        0.0000
     25 C           7.7401   -0.0513    3.3824 C.3     1  UNL1        0.0000
     26 H           7.5779   -0.6500    2.4914 H       1  UNL1        0.0000
     27 H           7.7116    0.9905    3.0741 H       1  UNL1        0.0000
     28 H           6.8940   -0.2197    4.0441 H       1  UNL1        0.0000
     29 C          13.2910   -2.5448    3.3661 C.3     1  UNL1        0.0000
     30 H          13.4156   -2.6901    2.2975 H       1  UNL1        0.0000
     31 H          12.3832   -3.0596    3.6631 H       1  UNL1        0.0000
     32 H          14.1231   -3.0369    3.8615 H       1  UNL1        0.0000
     33 C          14.8311    0.0869    3.1493 C.3     1  UNL1        0.0000
     34 H          15.6997   -0.4500    3.5215 H       1  UNL1        0.0000
     35 H          14.9368    1.1205    3.4632 H       1  UNL1        0.0000
     36 H          14.8753    0.0568    2.0639 H       1  UNL1        0.0000
     37 C          13.2485   -0.5541    5.7107 C.3     1  UNL1        0.0000
     38 H          14.1697   -0.9597    6.1200 H       1  UNL1        0.0000
     39 H          12.4234   -1.0998    6.1588 H       1  UNL1        0.0000
     40 H          13.1789    0.4784    6.0381 H       1  UNL1        0.0000
@<TRIPOS>BOND
     1    10     9    1
     2    14    13    1
     3    11     9    1
     4     8     5    1
     5     9    12    1
     6     9     2    1
     7    16    13    1
     8    13    15    1
     9    13     2    1
    10     5     2    1
    11     5     6    1
    12     5     7    1
    13     2     1    1
    14    36    33    1
    15    30    29    1
    16    26    25    1
    17     1     4    1
    18     1     3    1
    19    27    25    1
    20    33    35    1
    21    33    34    1
    22    33     4    1
    23    29    31    1
    24    29     4    1
    25    29    32    1
    26    25    28    1
    27    25     3    1
    28    20    17    1
    29     4    37    1
    30     3    17    1
    31     3    21    1
    32    17    19    1
    33    17    18    1
    34    37    40    1
    35    37    38    1
    36    37    39    1
    37    23    21    1
    38    21    22    1
    39    21    24    1
    40     1    21    0
    41     1    13    0
