@<TRIPOS>MOLECULE
1
 13 12 0 0 0
SMALL
GASTEIGER

@<TRIPOS>ATOM
      1 SI          7.1987   -0.3133    3.2857 Si      1  UNL1        0.0000
      2 C           7.9912   -2.0344    3.6894 C.3     1  UNL1        0.0000
      3 H           7.3125   -2.8710    3.5641 H       1  UNL1        0.0000
      4 H           8.3602   -2.0568    4.7100 H       1  UNL1        0.0000
      5 H           8.8404   -2.2100    3.0369 H       1  UNL1        0.0000
      6 C           6.8274   -0.4128    1.3965 C.3     1  UNL1        0.0000
      7 H           7.6823   -0.8158    0.8637 H       1  UNL1        0.0000
      8 H           6.6287    0.5755    0.9978 H       1  UNL1        0.0000
      9 H           5.9691   -1.0356    1.1680 H       1  UNL1        0.0000
     10 C           8.8031    0.7539    3.3548 C.3     1  UNL1        0.0000
     11 H           9.5479    0.3315    2.6879 H       1  UNL1        0.0000
     12 H           9.2316    0.7635    4.3520 H       1  UNL1        0.0000
     13 H           8.6437    1.7801    3.0483 H       1  UNL1        0.0000
@<TRIPOS>BOND
     1     7     6    1
     2     8     6    1
     3     9     6    1
     4     6     1    1
     5    11    10    1
     6     5     2    1
     7    13    10    1
     8     1    10    1
     9     1     2    1
    10    10    12    1
    11     3     2    1
    12     2     4    1
