@<TRIPOS>MOLECULE
1
 4 3 0 0 0
SMALL
GASTEIGER

@<TRIPOS>ATOM
      1 SI          4.2302    6.0049    3.5401 Si      1  UNL1        0.0000
      2 CL          3.2277    7.1605    4.9022 Cl      1  UNL1        0.0000
      3 CL          3.8476    6.8139    1.6861 Cl      1  UNL1        0.0000
      4 CL          6.2364    6.3699    3.8228 Cl      1  UNL1        0.0000
@<TRIPOS>BOND
     1     3     1    1
     2     1     4    1
     3     1     2    1
