@<TRIPOS>MOLECULE
1
 7 6 0 0 0
SMALL
GASTEIGER

@<TRIPOS>ATOM
      1 SI          3.7011    2.7023    2.8543 Si      1  UNL1        0.0000
      2 CL          4.8859    1.6814    1.5148 Cl      1  UNL1        0.0000
      3 CL          4.0799    1.9426    4.7441 Cl      1  UNL1        0.0000
      4 C           1.9186    2.0821    2.5133 C.3     1  UNL1        0.0000
      5 H           1.2158    2.4969    3.2295 H       1  UNL1        0.0000
      6 H           1.5796    2.3472    1.5177 H       1  UNL1        0.0000
      7 H           1.8802    0.9991    2.6009 H       1  UNL1        0.0000
@<TRIPOS>BOND
     1     2     1    1
     2     6     4    1
     3     4     7    1
     4     4     1    1
     5     4     5    1
     6     1     3    1
