@<TRIPOS>MOLECULE
1
 28 29 0 0 0
SMALL
GASTEIGER

@<TRIPOS>ATOM
      1 SI         13.4289    4.4712    4.7663 Si      1  UNL1        0.0000
      2 N          13.4569    4.7595    2.7204 N.4     1  UNL1        0.0000
      3 C          14.7423    6.8864    5.8625 C.ar    1  UNL1        0.0000
      4 C          15.2111    8.1825    5.7242 C.ar    1  UNL1        0.0000
      5 C          15.0483    8.8572    4.5254 C.ar    1  UNL1        0.0000
      6 C          14.4144    8.2398    3.4583 C.ar    1  UNL1        0.0000
      7 C          13.9440    6.9478    3.6059 C.ar    1  UNL1        0.0000
      8 C          14.1001    6.2603    4.8066 C.ar    1  UNL1        0.0000
      9 C          13.2165    6.1920    2.5321 C.3     1  UNL1        0.0000
     10 C          12.4561    3.9558    2.0387 C.3     1  UNL1        0.0000
     11 C          14.7837    4.4186    2.2267 C.3     1  UNL1        0.0000
     12 C          11.5351    4.7641    4.9550 C.2     1  UNL1        0.0000
     13 C          10.9766    5.8990    5.3509 C.2     1  UNL1        0.0000
     14 H          14.8723    6.3532    6.7927 H       1  UNL1        0.0000
     15 H          15.7086    8.6680    6.5507 H       1  UNL1        0.0000
     16 H          15.4188    9.8657    4.4178 H       1  UNL1        0.0000
     17 H          14.2876    8.7637    2.5213 H       1  UNL1        0.0000
     18 H          12.1430    6.3754    2.6407 H       1  UNL1        0.0000
     19 H          13.5206    6.5122    1.5292 H       1  UNL1        0.0000
     20 H          11.4685    4.1978    2.4240 H       1  UNL1        0.0000
     21 H          12.6512    2.9017    2.2204 H       1  UNL1        0.0000
     22 H          12.4717    4.1355    0.9603 H       1  UNL1        0.0000
     23 H          15.5260    5.0446    2.7166 H       1  UNL1        0.0000
     24 H          15.0027    3.3770    2.4578 H       1  UNL1        0.0000
     25 H          14.8496    4.5689    1.1458 H       1  UNL1        0.0000
     26 H          10.8931    3.8991    4.8270 H       1  UNL1        0.0000
     27 H           9.9141    5.9923    5.5223 H       1  UNL1        0.0000
     28 H          11.5621    6.7867    5.5317 H       1  UNL1        0.0000
@<TRIPOS>BOND
     1    22    10    1
     2    25    11    1
     3    19     9    1
     4    10    21    1
     5    10    20    1
     6    10     2    1
     7    11    24    1
     8    11    23    1
     9    11     2    1
    10    17     6    1
    11     9    18    1
    12     9     2    1
    13     9     7    1
    14     2     1    1
    15     6     7   ar
    16     6     5   ar
    17     7     8   ar
    18    16     5    1
    19     5     4   ar
    20     1     8    1
    21     1    12    1
    22     8     3   ar
    23    26    12    1
    24    12    13    2
    25    13    27    1
    26    13    28    1
    27     4     3   ar
    28     4    15    1
    29     3    14    1
