@<TRIPOS>MOLECULE
1
 16 16 0 0 0
SMALL
GASTEIGER

@<TRIPOS>ATOM
      1 SI          1.0626    1.8692    8.1468 Si      1  UNL1        0.0000
      2 C          -0.7357    2.5122    8.3499 C.ar    1  UNL1        0.0000
      3 C          -1.7821    1.6516    8.6811 C.ar    1  UNL1        0.0000
      4 H          -1.5775    0.6065    8.8615 H       1  UNL1        0.0000
      5 C          -3.0832    2.1111    8.7710 C.ar    1  UNL1        0.0000
      6 H          -3.8802    1.4263    9.0229 H       1  UNL1        0.0000
      7 C          -3.3659    3.4468    8.5380 C.ar    1  UNL1        0.0000
      8 H          -4.3818    3.8069    8.6094 H       1  UNL1        0.0000
      9 C          -2.3400    4.3175    8.2091 C.ar    1  UNL1        0.0000
     10 H          -2.5543    5.3602    8.0242 H       1  UNL1        0.0000
     11 C          -1.0423    3.8512    8.1094 C.ar    1  UNL1        0.0000
     12 H          -0.2487    4.5339    7.8374 H       1  UNL1        0.0000
     13 C           1.2474    0.7183    9.6875 C.3     1  UNL1        0.0000
     14 H           0.7906    1.1543   10.5731 H       1  UNL1        0.0000
     15 H           2.2948    0.5229    9.9049 H       1  UNL1        0.0000
     16 H           0.7711   -0.2439    9.5122 H       1  UNL1        0.0000
@<TRIPOS>BOND
     1    12    11    1
     2    10     9    1
     3    11     9   ar
     4    11     2   ar
     5     1     2    1
     6     1    13    1
     7     9     7   ar
     8     2     3   ar
     9     7     8    1
    10     7     5   ar
    11     3     5   ar
    12     3     4    1
    13     5     6    1
    14    16    13    1
    15    13    15    1
    16    13    14    1
