@<TRIPOS>MOLECULE
1
 15 14 0 0 0
SMALL
GASTEIGER

@<TRIPOS>ATOM
      1 SI         -1.0516    9.5337    7.9320 Si      1  UNL1        0.0000
      2 C          -0.7246   10.8224    6.4938 C.3     1  UNL1        0.0000
      3 H           0.2146   11.3385    6.7017 H       1  UNL1        0.0000
      4 H          -0.5770   10.2997    5.5469 H       1  UNL1        0.0000
      5 C          -1.8242   11.8592    6.3046 C.3     1  UNL1        0.0000
      6 H          -1.6082   12.4959    5.4460 H       1  UNL1        0.0000
      7 H          -2.7872   11.3817    6.1374 H       1  UNL1        0.0000
      8 H          -1.9156   12.4967    7.1787 H       1  UNL1        0.0000
      9 C          -1.3780   10.8224    9.3701 C.3     1  UNL1        0.0000
     10 H          -2.3172   11.3385    9.1622 H       1  UNL1        0.0000
     11 H          -1.5254   10.2996   10.3169 H       1  UNL1        0.0000
     12 C          -0.2782   11.8591    9.5592 C.3     1  UNL1        0.0000
     13 H          -0.4941   12.4958   10.4178 H       1  UNL1        0.0000
     14 H           0.6848   11.3815    9.7262 H       1  UNL1        0.0000
     15 H          -0.1869   12.4967    8.6851 H       1  UNL1        0.0000
@<TRIPOS>BOND
     1     6     5    1
     2     4     2    1
     3     7     5    1
     4     5     2    1
     5     5     8    1
     6     2     3    1
     7     2     1    1
     8     1     9    1
     9    15    12    1
    10    10     9    1
    11     9    12    1
    12     9    11    1
    13    12    14    1
    14    12    13    1
