@<TRIPOS>MOLECULE
1
 24 25 0 0 0
SMALL
GASTEIGER

@<TRIPOS>ATOM
      1 SI          4.1392    8.8749    1.4040 Si      1  UNL1        0.0000
      2 C           3.5831    6.7000   -0.4116 C.ar    1  UNL1        0.0000
      3 H           4.3768    7.1344   -1.0021 H       1  UNL1        0.0000
      4 C           2.9665   10.2894    0.8852 C.ar    1  UNL1        0.0000
      5 C           3.2330    7.2987    0.7938 C.ar    1  UNL1        0.0000
      6 C           3.4329   11.5992    0.8569 C.ar    1  UNL1        0.0000
      7 H           4.4581   11.7901    1.1421 H       1  UNL1        0.0000
      8 C           2.1971    6.7198    1.5189 C.ar    1  UNL1        0.0000
      9 H           1.9016    7.1667    2.4590 H       1  UNL1        0.0000
     10 C           0.8205   11.1055    0.1329 C.ar    1  UNL1        0.0000
     11 H          -0.2030   10.9060   -0.1538 H       1  UNL1        0.0000
     12 C           1.6492   10.0628    0.5101 C.ar    1  UNL1        0.0000
     13 H           1.2690    9.0522    0.5111 H       1  UNL1        0.0000
     14 C           2.6153   12.6484    0.4792 C.ar    1  UNL1        0.0000
     15 H           2.9992   13.6598    0.4638 H       1  UNL1        0.0000
     16 C           1.3000   12.4039    0.1187 C.ar    1  UNL1        0.0000
     17 H           0.6553   13.2204   -0.1752 H       1  UNL1        0.0000
     18 C           1.5403    5.5885    1.0695 C.ar    1  UNL1        0.0000
     19 H           0.7361    5.1598    1.6527 H       1  UNL1        0.0000
     20 C           2.9368    5.5655   -0.8705 C.ar    1  UNL1        0.0000
     21 H           3.2309    5.1183   -1.8101 H       1  UNL1        0.0000
     22 C           1.9120    5.0031   -0.1290 C.ar    1  UNL1        0.0000
     23 H           1.4047    4.1167   -0.4832 H       1  UNL1        0.0000
     24 H           5.1289    9.0210    0.2868 H       1  UNL1        0.0000
@<TRIPOS>BOND
     1    21    20    1
     2     3     2    1
     3    20     2   ar
     4    20    22   ar
     5    23    22    1
     6     2     5   ar
     7    17    16    1
     8    11    10    1
     9    22    18   ar
    10    16    10   ar
    11    16    14   ar
    12    10    12   ar
    13    24     1    1
    14    15    14    1
    15    14     6   ar
    16    12    13    1
    17    12     4   ar
    18     5     1    1
    19     5     8   ar
    20     6     4   ar
    21     6     7    1
    22     4     1    1
    23    18     8   ar
    24    18    19    1
    25     8     9    1
