@<TRIPOS>MOLECULE
1
 18 17 0 0 0
SMALL
GASTEIGER

@<TRIPOS>ATOM
      1 SI          0.8455    4.8386    2.5599 Si      1  UNL1        0.0000
      2 C           2.6925    5.4124    2.6321 C.3     1  UNL1        0.0000
      3 H           3.1643    5.4704    1.6534 H       1  UNL1        0.0000
      4 H           3.3048    4.7719    3.2621 H       1  UNL1        0.0000
      5 H           2.6996    6.4055    3.0747 H       1  UNL1        0.0000
      6 C           0.0797    5.8710    1.0770 C.3     1  UNL1        0.0000
      7 C           0.3682    5.2188   -0.2782 C.3     1  UNL1        0.0000
      8 H          -0.0776    5.8076   -1.0783 H       1  UNL1        0.0000
      9 H          -0.0507    4.2158   -0.3192 H       1  UNL1        0.0000
     10 H           1.4383    5.1506   -0.4626 H       1  UNL1        0.0000
     11 C           0.6351    7.2954    1.1019 C.3     1  UNL1        0.0000
     12 H           1.6946    7.3247    0.8616 H       1  UNL1        0.0000
     13 H           0.4863    7.7186    2.0907 H       1  UNL1        0.0000
     14 H           0.1057    7.9157    0.3797 H       1  UNL1        0.0000
     15 C          -1.4317    5.9544    1.2943 C.3     1  UNL1        0.0000
     16 H          -1.6316    6.3820    2.2735 H       1  UNL1        0.0000
     17 H          -1.8963    4.9719    1.2434 H       1  UNL1        0.0000
     18 H          -1.8900    6.5900    0.5377 H       1  UNL1        0.0000
@<TRIPOS>BOND
     1     8     7    1
     2    10     7    1
     3     9     7    1
     4     7     6    1
     5    14    11    1
     6    18    15    1
     7    12    11    1
     8     6    11    1
     9     6    15    1
    10     6     1    1
    11    11    13    1
    12    17    15    1
    13    15    16    1
    14     3     2    1
    15     1     2    1
    16     2     5    1
    17     2     4    1
