@<TRIPOS>MOLECULE
1
 18 17 0 0 0
SMALL
GASTEIGER

@<TRIPOS>ATOM
      1 SI         -0.2146    5.2686    5.5242 Si      1  UNL1        0.0000
      2 C           1.3150    5.8127    6.5752 C.3     1  UNL1        0.0000
      3 H           1.3776    6.8961    6.5766 H       1  UNL1        0.0000
      4 H           2.2409    5.4379    6.1467 H       1  UNL1        0.0000
      5 H           1.2515    5.4712    7.6062 H       1  UNL1        0.0000
      6 C          -1.7957    6.0930    6.3362 C.3     1  UNL1        0.0000
      7 C          -1.4227    7.3969    7.0422 C.3     1  UNL1        0.0000
      8 H          -0.9138    8.0516    6.3403 H       1  UNL1        0.0000
      9 H          -0.7730    7.2204    7.8964 H       1  UNL1        0.0000
     10 H          -2.3211    7.9025    7.3958 H       1  UNL1        0.0000
     11 C          -2.7953    6.4276    5.2295 C.3     1  UNL1        0.0000
     12 H          -3.6697    6.9302    5.6416 H       1  UNL1        0.0000
     13 H          -3.1237    5.5326    4.7064 H       1  UNL1        0.0000
     14 H          -2.3198    7.0870    4.5100 H       1  UNL1        0.0000
     15 C          -2.4469    5.1317    7.3340 C.3     1  UNL1        0.0000
     16 H          -3.3373    5.5849    7.7679 H       1  UNL1        0.0000
     17 H          -1.7619    4.8865    8.1438 H       1  UNL1        0.0000
     18 H          -2.7422    4.2088    6.8379 H       1  UNL1        0.0000
@<TRIPOS>BOND
     1    14    11    1
     2    13    11    1
     3    11    12    1
     4    11     6    1
     5     1     6    1
     6     1     2    1
     7     4     2    1
     8     6     7    1
     9     6    15    1
    10     8     7    1
    11     2     3    1
    12     2     5    1
    13    18    15    1
    14     7    10    1
    15     7     9    1
    16    15    16    1
    17    15    17    1
