@<TRIPOS>MOLECULE
1
 18 17 0 0 0
SMALL
GASTEIGER

@<TRIPOS>ATOM
      1 SI          1.6836    7.7060   14.1297 Si      1  UNL1        0.0000
      2 C           3.2207    8.4036   15.0735 C.3     1  UNL1        0.0000
      3 H           3.4593    9.3677   14.6330 H       1  UNL1        0.0000
      4 H           4.0918    7.7672   14.9534 H       1  UNL1        0.0000
      5 H           3.0549    8.5490   16.1392 H       1  UNL1        0.0000
      6 C           0.1655    8.6928   14.8819 C.3     1  UNL1        0.0000
      7 C          -0.2867    8.1139   16.2259 C.3     1  UNL1        0.0000
      8 H          -1.1378    8.6750   16.6088 H       1  UNL1        0.0000
      9 H           0.5105    8.1610   16.9648 H       1  UNL1        0.0000
     10 H          -0.5875    7.0744   16.1129 H       1  UNL1        0.0000
     11 C           0.5496   10.1647   15.0431 C.3     1  UNL1        0.0000
     12 H           0.9379   10.5342   14.0985 H       1  UNL1        0.0000
     13 H           1.3052   10.3073   15.8116 H       1  UNL1        0.0000
     14 H          -0.3250   10.7560   15.3120 H       1  UNL1        0.0000
     15 C          -0.9862    8.6162   13.8817 C.3     1  UNL1        0.0000
     16 H          -1.3360    7.5943   13.7618 H       1  UNL1        0.0000
     17 H          -0.6492    8.9841   12.9164 H       1  UNL1        0.0000
     18 H          -1.8229    9.2298   14.2141 H       1  UNL1        0.0000
@<TRIPOS>BOND
     1    17    15    1
     2    16    15    1
     3    15    18    1
     4    15     6    1
     5    12    11    1
     6     1     6    1
     7     1     2    1
     8     3     2    1
     9     6    11    1
    10     6     7    1
    11     4     2    1
    12    11    14    1
    13    11    13    1
    14     2     5    1
    15    10     7    1
    16     7     8    1
    17     7     9    1
