@<TRIPOS>MOLECULE
1
 18 17 0 0 0
SMALL
GASTEIGER

@<TRIPOS>ATOM
      1 SI          2.6208    7.7463   11.2381 Si      1  UNL1        0.0000
      2 C           4.4533    8.3037   11.4395 C.3     1  UNL1        0.0000
      3 H           5.1136    7.8362   10.7139 H       1  UNL1        0.0000
      4 H           4.8097    8.0574   12.4339 H       1  UNL1        0.0000
      5 H           4.5299    9.3798   11.3277 H       1  UNL1        0.0000
      6 C           1.9938    8.3261    9.4779 C.3     1  UNL1        0.0000
      7 C           0.5794    8.8881    9.6105 C.3     1  UNL1        0.0000
      8 H           0.5627    9.6393   10.3932 H       1  UNL1        0.0000
      9 H          -0.1308    8.1112    9.8724 H       1  UNL1        0.0000
     10 H           0.2595    9.3455    8.6750 H       1  UNL1        0.0000
     11 C           2.8885    9.4313    8.9105 C.3     1  UNL1        0.0000
     12 H           2.4993    9.7732    7.9512 H       1  UNL1        0.0000
     13 H           3.9089    9.0852    8.7588 H       1  UNL1        0.0000
     14 H           2.9001   10.2759    9.5945 H       1  UNL1        0.0000
     15 C           1.9727    7.1359    8.5159 C.3     1  UNL1        0.0000
     16 H           1.3448    6.3409    8.9117 H       1  UNL1        0.0000
     17 H           2.9762    6.7428    8.3608 H       1  UNL1        0.0000
     18 H           1.5750    7.4386    7.5481 H       1  UNL1        0.0000
@<TRIPOS>BOND
     1    18    15    1
     2    12    11    1
     3    17    15    1
     4    15    16    1
     5    15     6    1
     6    10     7    1
     7    13    11    1
     8    11     6    1
     9    11    14    1
    10     6     7    1
    11     6     1    1
    12     7     9    1
    13     7     8    1
    14     3     2    1
    15     1     2    1
    16     5     2    1
    17     2     4    1
