@<TRIPOS>MOLECULE
2
 58 57 0 0 0
SMALL
GASTEIGER

@<TRIPOS>ATOM
      1 P           3.3847    3.7854   -1.4802 P.3     1  UNL1        0.0000
      2 SI          2.3137    3.9572    1.6191 Si      1  UNL1        0.0000
      3 O           2.0855    5.5848    1.7455 O.3     1  UNL1        0.0000
      4 O           0.9120    3.5806    0.8341 O.3     1  UNL1        0.0000
      5 O           3.3373    4.0023    0.0059 O.3     1  UNL1        0.0000
      6 N           2.3982    2.5618   -2.0793 N.3     1  UNL1        0.0000
      7 N           3.0658    5.2376   -2.2298 N.3     1  UNL1        0.0000
      8 N           4.9083    3.3444   -1.9319 N.3     1  UNL1        0.0000
      9 C           2.8309    6.6367    2.3317 C.3     1  UNL1        0.0000
     10 C           4.2178    6.7165    1.6936 C.3     1  UNL1        0.0000
     11 C           2.9527    6.4142    3.8404 C.3     1  UNL1        0.0000
     12 C           2.0437    7.9239    2.0542 C.3     1  UNL1        0.0000
     13 C          -0.4046    3.4298    1.3475 C.3     1  UNL1        0.0000
     14 C          -0.4433    3.5821    2.8671 C.3     1  UNL1        0.0000
     15 C          -1.2741    4.5166    0.7042 C.3     1  UNL1        0.0000
     16 C          -0.9054    2.0332    0.9641 C.3     1  UNL1        0.0000
     17 C           1.0276    2.9351   -2.3916 C.3     1  UNL1        0.0000
     18 C           2.4712    1.3405   -1.2902 C.3     1  UNL1        0.0000
     19 C           3.3267    5.3959   -3.6425 C.3     1  UNL1        0.0000
     20 C           2.0837    6.1506   -1.6826 C.3     1  UNL1        0.0000
     21 C           6.0313    3.8888   -1.1990 C.3     1  UNL1        0.0000
     22 C           5.2390    2.3278   -2.9026 C.3     1  UNL1        0.0000
     23 H           0.4605    3.1911   -1.4936 H       1  UNL1        0.0000
     24 H           0.5486    2.0909   -2.8908 H       1  UNL1        0.0000
     25 H           1.0277    3.7826   -3.0733 H       1  UNL1        0.0000
     26 H           1.9207    1.4327   -0.3494 H       1  UNL1        0.0000
     27 H           2.0567    0.5183   -1.8759 H       1  UNL1        0.0000
     28 H           3.5116    1.1246   -1.0609 H       1  UNL1        0.0000
     29 H           2.4183    5.2968   -4.2474 H       1  UNL1        0.0000
     30 H           3.7501    6.3870   -3.8246 H       1  UNL1        0.0000
     31 H           4.0430    4.6416   -3.9587 H       1  UNL1        0.0000
     32 H           1.9126    5.8971   -0.6388 H       1  UNL1        0.0000
     33 H           1.1324    6.1019   -2.2231 H       1  UNL1        0.0000
     34 H           2.4655    7.1729   -1.7513 H       1  UNL1        0.0000
     35 H           6.7198    4.3980   -1.8797 H       1  UNL1        0.0000
     36 H           6.5739    3.0974   -0.6757 H       1  UNL1        0.0000
     37 H           5.6593    4.6005   -0.4655 H       1  UNL1        0.0000
     38 H           5.7333    1.4777   -2.4231 H       1  UNL1        0.0000
     39 H           4.3296    1.9849   -3.3889 H       1  UNL1        0.0000
     40 H           5.9195    2.7372   -3.6566 H       1  UNL1        0.0000
     41 H           4.7725    5.8077    1.9084 H       1  UNL1        0.0000
     42 H           4.1248    6.8145    0.6147 H       1  UNL1        0.0000
     43 H           4.7642    7.5706    2.0846 H       1  UNL1        0.0000
     44 H           1.9658    6.2862    4.2778 H       1  UNL1        0.0000
     45 H           3.5358    5.5180    4.0399 H       1  UNL1        0.0000
     46 H           3.4366    7.2679    4.3070 H       1  UNL1        0.0000
     47 H           1.0506    7.8499    2.4897 H       1  UNL1        0.0000
     48 H           1.9403    8.0751    0.9828 H       1  UNL1        0.0000
     49 H           2.5544    8.7803    2.4851 H       1  UNL1        0.0000
     50 H          -1.4676    3.5038    3.2223 H       1  UNL1        0.0000
     51 H          -0.0415    4.5500    3.1494 H       1  UNL1        0.0000
     52 H           0.1581    2.8083    3.3376 H       1  UNL1        0.0000
     53 H          -0.8629    5.4921    0.9491 H       1  UNL1        0.0000
     54 H          -2.2946    4.4542    1.0720 H       1  UNL1        0.0000
     55 H          -1.2839    4.4069   -0.3777 H       1  UNL1        0.0000
     56 H          -0.9187    1.9101   -0.1161 H       1  UNL1        0.0000
     57 H          -1.9118    1.8802    1.3441 H       1  UNL1        0.0000
     58 H          -0.2503    1.2786    1.3913 H       1  UNL1        0.0000
@<TRIPOS>BOND
     1    29    19    1
     2    31    19    1
     3    30    19    1
     4    40    22    1
     5    19     7    1
     6    39    22    1
     7    25    17    1
     8    22    38    1
     9    22     8    1
    10    24    17    1
    11    17     6    1
    12    17    23    1
    13     7    20    1
    14     7     1    1
    15    33    20    1
    16     6     1    1
    17     6    18    1
    18     8     1    1
    19     8    21    1
    20    35    21    1
    21    27    18    1
    22    34    20    1
    23    20    32    1
    24     1     5    1
    25    18    28    1
    26    18    26    1
    27    21    36    1
    28    21    37    1
    29    55    15    1
    30    56    16    1
    31     5     2    1
    32    42    10    1
    33    15    53    1
    34    15    54    1
    35    15    13    1
    36     4    13    1
    37     4     2    1
    38    16    57    1
    39    16    13    1
    40    16    58    1
    41    48    12    1
    42    13    14    1
    43     2     3    1
    44    10    41    1
    45    10    43    1
    46    10     9    1
    47     3     9    1
    48    12     9    1
    49    12    49    1
    50    12    47    1
    51     9    11    1
    52    14    51    1
    53    14    50    1
    54    14    52    1
    55    11    45    1
    56    11    44    1
    57    11    46    1
