@<TRIPOS>MOLECULE
1
 40 40 0 0 0
SMALL
GASTEIGER

@<TRIPOS>ATOM
      1 SI          4.2713    1.8204    0.0372 Si      1  UNL1        0.0000
      2 SI          2.9315    3.1146    1.5621 Si      1  UNL1        0.0000
      3 SI          4.6150    3.2150   -1.9208 Si      1  UNL1        0.0000
      4 SI          2.9098   -0.0058   -0.7438 Si      1  UNL1        0.0000
      5 C           1.1505    3.3556    0.9028 C.3     1  UNL1        0.0000
      6 C           2.7275    2.2821    3.2787 C.3     1  UNL1        0.0000
      7 C           3.6921    4.8411    1.8616 C.3     1  UNL1        0.0000
      8 C           6.0705    4.4159   -1.6277 C.3     1  UNL1        0.0000
      9 C           3.0935    4.2941   -2.3610 C.3     1  UNL1        0.0000
     10 C           5.0345    2.1974   -3.4886 C.3     1  UNL1        0.0000
     11 C           1.6621    0.5624   -2.0789 C.3     1  UNL1        0.0000
     12 C           1.8063   -0.8603    0.5735 C.3     1  UNL1        0.0000
     13 C           4.0564   -1.3310   -1.5300 C.3     1  UNL1        0.0000
     14 H           1.1525    3.8090   -0.0819 H       1  UNL1        0.0000
     15 H           0.5629    3.9943    1.5561 H       1  UNL1        0.0000
     16 H           0.6319    2.4059    0.8234 H       1  UNL1        0.0000
     17 H           3.6763    2.2128    3.7999 H       1  UNL1        0.0000
     18 H           2.3197    1.2800    3.1869 H       1  UNL1        0.0000
     19 H           2.0511    2.8468    3.9144 H       1  UNL1        0.0000
     20 H           4.7451    4.7596    2.1131 H       1  UNL1        0.0000
     21 H           3.2011    5.3767    2.6695 H       1  UNL1        0.0000
     22 H           3.6201    5.4564    0.9703 H       1  UNL1        0.0000
     23 H           6.9927    3.8664   -1.4540 H       1  UNL1        0.0000
     24 H           5.8992    5.0487   -0.7621 H       1  UNL1        0.0000
     25 H           6.2390    5.0682   -2.4810 H       1  UNL1        0.0000
     26 H           2.2142    3.6830   -2.5315 H       1  UNL1        0.0000
     27 H           3.2668    4.8744   -3.2625 H       1  UNL1        0.0000
     28 H           2.8606    4.9925   -1.5644 H       1  UNL1        0.0000
     29 H           5.9264    1.6003   -3.3322 H       1  UNL1        0.0000
     30 H           5.2208    2.8441   -4.3422 H       1  UNL1        0.0000
     31 H           4.2319    1.5204   -3.7614 H       1  UNL1        0.0000
     32 H           2.1647    0.9977   -2.9353 H       1  UNL1        0.0000
     33 H           0.9897    1.3149   -1.6803 H       1  UNL1        0.0000
     34 H           1.0520   -0.2614   -2.4400 H       1  UNL1        0.0000
     35 H           2.3771   -1.3198    1.3724 H       1  UNL1        0.0000
     36 H           1.1925   -1.6377    0.1263 H       1  UNL1        0.0000
     37 H           1.1338   -0.1409    1.0292 H       1  UNL1        0.0000
     38 H           4.1056   -2.2396   -0.9377 H       1  UNL1        0.0000
     39 H           5.0690   -0.9453   -1.6315 H       1  UNL1        0.0000
     40 H           3.7192   -1.6155   -2.5218 H       1  UNL1        0.0000
@<TRIPOS>BOND
     1    30    10    1
     2    31    10    1
     3    10    29    1
     4    10     3    1
     5    27     9    1
     6    32    11    1
     7    26     9    1
     8    40    13    1
     9    25     8    1
    10    34    11    1
    11     9     3    1
    12     9    28    1
    13    11    33    1
    14    11     4    1
    15     3     8    1
    16     3     1    1
    17    39    13    1
    18     8    23    1
    19     8    24    1
    20    13    38    1
    21    13     4    1
    22     4     1    1
    23     4    12    1
    24    14     5    1
    25     1     2    1
    26    36    12    1
    27    12    37    1
    28    12    35    1
    29    16     5    1
    30     5    15    1
    31     5     2    1
    32    22     7    1
    33     2     7    1
    34     2     6    1
    35     7    20    1
    36     7    21    1
    37    18     6    1
    38     6    17    1
    39     6    19    1
    40     1    13    0
