@<TRIPOS>MOLECULE
1
 7 6 0 0 0
SMALL
GASTEIGER

@<TRIPOS>ATOM
      1 SI          8.9644    1.1158    2.1010 Si      1  UNL1        0.0000
      2 CL         10.7029    0.1439    2.6229 Cl      1  UNL1        0.0000
      3 CL          7.4698   -0.0186    2.9489 Cl      1  UNL1        0.0000
      4 C           8.9821    2.6951    3.1833 C.3     1  UNL1        0.0000
      5 H           8.0132    3.1816    3.1744 H       1  UNL1        0.0000
      6 H           9.7268    3.4041    2.8409 H       1  UNL1        0.0000
      7 H           9.2146    2.4387    4.2126 H       1  UNL1        0.0000
@<TRIPOS>BOND
     1     1     2    1
     2     1     3    1
     3     1     4    1
     4     6     4    1
     5     5     4    1
     6     4     7    1
