@<TRIPOS>MOLECULE
1
 40 39 0 0 0
SMALL
GASTEIGER

@<TRIPOS>ATOM
      1 SI          0.0001    0.0001   -2.9598 Si      1  UNL1        0.0000
      2 SI          2.0696   -0.9220   -3.6948 Si      1  UNL1        0.0000
      3 C           2.9056   -0.3344   -5.3200 C.3     1  UNL1        0.0000
      4 C           3.2981   -0.5101   -2.2744 C.3     1  UNL1        0.0000
      5 C           1.9718   -2.8354   -3.8477 C.3     1  UNL1        0.0000
      6 H           2.2766   -0.5428   -6.1794 H       1  UNL1        0.0000
      7 H           3.8623   -0.8224   -5.4874 H       1  UNL1        0.0000
      8 H           3.0832    0.7357   -5.2992 H       1  UNL1        0.0000
      9 H           2.7580   -0.2810   -1.3464 H       1  UNL1        0.0000
     10 H           3.8953    0.3630   -2.5231 H       1  UNL1        0.0000
     11 H           3.9929   -1.3204   -2.0686 H       1  UNL1        0.0000
     12 H           1.6250   -3.1254   -4.8341 H       1  UNL1        0.0000
     13 H           1.2742   -3.2510   -3.1259 H       1  UNL1        0.0000
     14 H           2.9343   -3.3144   -3.6896 H       1  UNL1        0.0000
     15 SI         -0.2362    2.2533   -3.6948 Si      1  UNL1        0.0000
     16 C          -1.1632    2.6833   -5.3199 C.3     1  UNL1        0.0000
     17 H          -0.6683    2.2428   -6.1794 H       1  UNL1        0.0000
     18 H          -1.2191    3.7558   -5.4873 H       1  UNL1        0.0000
     19 H          -2.1788    2.3020   -5.2990 H       1  UNL1        0.0000
     20 C          -1.2071    3.1113   -2.2743 C.3     1  UNL1        0.0000
     21 H          -1.1355    2.5290   -1.3464 H       1  UNL1        0.0000
     22 H          -2.2618    3.1921   -2.5228 H       1  UNL1        0.0000
     23 H          -0.8526    4.1180   -2.0684 H       1  UNL1        0.0000
     24 C           1.4697    3.1254   -3.8478 C.3     1  UNL1        0.0000
     25 H           1.8944    2.9699   -4.8341 H       1  UNL1        0.0000
     26 H           2.1784    2.7292   -3.1258 H       1  UNL1        0.0000
     27 H           1.4031    4.1985   -3.6900 H       1  UNL1        0.0000
     28 SI         -1.8332   -1.3312   -3.6948 Si      1  UNL1        0.0000
     29 C          -1.7424   -2.3488   -5.3201 C.3     1  UNL1        0.0000
     30 H          -1.6085   -1.6997   -6.1794 H       1  UNL1        0.0000
     31 H          -2.6433   -2.9334   -5.4875 H       1  UNL1        0.0000
     32 H          -0.9044   -3.0376   -5.2994 H       1  UNL1        0.0000
     33 C          -2.0907   -2.6012   -2.2745 C.3     1  UNL1        0.0000
     34 H          -1.6224   -2.2480   -1.3465 H       1  UNL1        0.0000
     35 H          -1.6330   -3.5548   -2.5231 H       1  UNL1        0.0000
     36 H          -3.1397   -2.7979   -2.0687 H       1  UNL1        0.0000
     37 C          -3.4415   -0.2899   -3.8475 C.3     1  UNL1        0.0000
     38 H          -3.5194    0.1555   -4.8338 H       1  UNL1        0.0000
     39 H          -3.4525    0.5220   -3.1256 H       1  UNL1        0.0000
     40 H          -4.3375   -0.8841   -3.6893 H       1  UNL1        0.0000
@<TRIPOS>BOND
     1    30    29    1
     2     6     3    1
     3    17    16    1
     4    31    29    1
     5     7     3    1
     6    18    16    1
     7    29    32    1
     8    29    28    1
     9     3     8    1
    10     3     2    1
    11    16    19    1
    12    16    15    1
    13    25    24    1
    14    12     5    1
    15    38    37    1
    16    24    15    1
    17    24    27    1
    18    24    26    1
    19     5     2    1
    20     5    14    1
    21     5    13    1
    22    37    28    1
    23    37    40    1
    24    37    39    1
    25    28     1    1
    26    28    33    1
    27     2     1    1
    28     2     4    1
    29    15     1    1
    30    15    20    1
    31    35    33    1
    32    10     4    1
    33    22    20    1
    34    33    36    1
    35    33    34    1
    36     4    11    1
    37     4     9    1
    38    20    23    1
    39    20    21    1
