@<TRIPOS>MOLECULE
1
 36 37 0 0 0
SMALL
GASTEIGER

@<TRIPOS>ATOM
      1 SI          2.9166    7.9944    2.1135 Si      1  UNL1        0.0000
      2 C           0.2491   10.0061   -0.4054 C.ar    1  UNL1        0.0000
      3 C           1.8055    8.4412    0.5924 C.ar    1  UNL1        0.0000
      4 C           0.3841    7.1183    3.1130 C.3     1  UNL1        0.0000
      5 C           4.4659    7.1695    1.3035 C.ar    1  UNL1        0.0000
      6 C           1.0693    9.6232    0.6410 C.ar    1  UNL1        0.0000
      7 C           1.8273    6.6154    3.0317 C.3     1  UNL1        0.0000
      8 C           6.8738    6.2166    0.2095 C.ar    1  UNL1        0.0000
      9 C           5.2594    6.2463    1.9825 C.ar    1  UNL1        0.0000
     10 C           1.6884    7.6530   -0.5488 C.ar    1  UNL1        0.0000
     11 C           2.3482    6.4280    4.4581 C.3     1  UNL1        0.0000
     12 C           4.9264    7.6098    0.0625 C.ar    1  UNL1        0.0000
     13 C           0.8723    8.0291   -1.6019 C.ar    1  UNL1        0.0000
     14 C           6.1088    7.1418   -0.4812 C.ar    1  UNL1        0.0000
     15 C           0.1498    9.2081   -1.5337 C.ar    1  UNL1        0.0000
     16 C           1.8295    5.2692    2.3085 C.3     1  UNL1        0.0000
     17 C           6.4421    5.7690    1.4465 C.ar    1  UNL1        0.0000
     18 H          -0.3152   10.9269   -0.3463 H       1  UNL1        0.0000
     19 H           0.3401    8.0912    3.6016 H       1  UNL1        0.0000
     20 H          -0.2337    6.4200    3.6793 H       1  UNL1        0.0000
     21 H          -0.0447    7.2196    2.1185 H       1  UNL1        0.0000
     22 H           1.1455   10.2475    1.5293 H       1  UNL1        0.0000
     23 H           7.7975    5.8473   -0.2125 H       1  UNL1        0.0000
     24 H           4.9448    5.8867    2.9523 H       1  UNL1        0.0000
     25 H           2.2520    6.7331   -0.6157 H       1  UNL1        0.0000
     26 H           3.3343    5.9682    4.4543 H       1  UNL1        0.0000
     27 H           1.6811    5.7805    5.0298 H       1  UNL1        0.0000
     28 H           2.4245    7.3924    4.9709 H       1  UNL1        0.0000
     29 H           4.3360    8.3265   -0.4919 H       1  UNL1        0.0000
     30 H           0.7988    7.4021   -2.4797 H       1  UNL1        0.0000
     31 H           6.4372    7.4979   -1.4482 H       1  UNL1        0.0000
     32 H          -0.4870    9.5044   -2.3550 H       1  UNL1        0.0000
     33 H           2.8386    4.8782    2.2066 H       1  UNL1        0.0000
     34 H           1.4029    5.3733    1.3140 H       1  UNL1        0.0000
     35 H           1.2334    4.5393    2.8582 H       1  UNL1        0.0000
     36 H           7.0314    5.0467    1.9948 H       1  UNL1        0.0000
@<TRIPOS>BOND
     1    30    13    1
     2    32    15    1
     3    13    15   ar
     4    13    10   ar
     5    15     2   ar
     6    31    14    1
     7    25    10    1
     8    10     3   ar
     9    29    12    1
    10    14    12   ar
    11    14     8   ar
    12     2    18    1
    13     2     6   ar
    14    23     8    1
    15    12     5   ar
    16     8    17   ar
    17     3     6   ar
    18     3     1    1
    19     6    22    1
    20     5     9   ar
    21     5     1    1
    22    34    16    1
    23    17     9   ar
    24    17    36    1
    25     9    24    1
    26     1     7    1
    27    21     4    1
    28    33    16    1
    29    16    35    1
    30    16     7    1
    31     7     4    1
    32     7    11    1
    33     4    19    1
    34     4    20    1
    35    26    11    1
    36    11    28    1
    37    11    27    1
