@<TRIPOS>MOLECULE
1
 89 90 0 0 0
SMALL
GASTEIGER

@<TRIPOS>ATOM
      1 SI          6.4948    5.8081    2.2189 Si      1  UNL1        0.0000
      2 N           7.1938    7.3636    1.1693 N.3     1  UNL1        0.0000
      3 N           8.1920    5.5406    1.5824 N.3     1  UNL1        0.0000
      4 N           9.5638    7.3148    0.6928 N.3     1  UNL1        0.0000
      5 N           5.9973    3.8868    2.4829 N.3     1  UNL1        0.0000
      6 N           5.2760    5.2062    0.9901 N.3     1  UNL1        0.0000
      7 N           4.0705    3.1305    1.2335 N.3     1  UNL1        0.0000
      8 C           8.3752    6.7834    1.1297 C.3     1  UNL1        0.0000
      9 C           6.8457    8.7692    1.2381 C.3     1  UNL1        0.0000
     10 H           5.8977    8.7508    1.7920 H       1  UNL1        0.0000
     11 C           7.8276    9.6133    2.0460 C.3     1  UNL1        0.0000
     12 H           8.7717    9.7187    1.5219 H       1  UNL1        0.0000
     13 H           8.0054    9.1515    3.0136 H       1  UNL1        0.0000
     14 H           7.4049   10.6020    2.2084 H       1  UNL1        0.0000
     15 C           6.5774    9.4527   -0.1138 C.3     1  UNL1        0.0000
     16 H           7.4919    9.8415   -0.5550 H       1  UNL1        0.0000
     17 H           5.9082   10.2948    0.0495 H       1  UNL1        0.0000
     18 H           6.1038    8.7755   -0.8182 H       1  UNL1        0.0000
     19 C           9.0974    4.4283    1.4165 C.3     1  UNL1        0.0000
     20 H           9.9832    4.7890    0.8865 H       1  UNL1        0.0000
     21 C           9.5190    3.8739    2.7756 C.3     1  UNL1        0.0000
     22 H          10.1702    3.0120    2.6491 H       1  UNL1        0.0000
     23 H           8.6400    3.5863    3.3390 H       1  UNL1        0.0000
     24 H          10.0514    4.6278    3.3507 H       1  UNL1        0.0000
     25 C           8.4558    3.3512    0.5404 C.3     1  UNL1        0.0000
     26 H           8.2594    3.7466   -0.4540 H       1  UNL1        0.0000
     27 H           7.5154    3.0359    0.9757 H       1  UNL1        0.0000
     28 H           9.1225    2.4965    0.4483 H       1  UNL1        0.0000
     29 C           9.5531    7.8252   -0.6759 C.3     1  UNL1        0.0000
     30 H           8.5048    8.0630   -0.8693 H       1  UNL1        0.0000
     31 C          10.3696    9.0936   -0.9077 C.3     1  UNL1        0.0000
     32 H          11.4357    8.9100   -0.8159 H       1  UNL1        0.0000
     33 H          10.0862    9.8790   -0.2123 H       1  UNL1        0.0000
     34 H          10.1773    9.4500   -1.9179 H       1  UNL1        0.0000
     35 C           9.9416    6.7499   -1.7041 C.3     1  UNL1        0.0000
     36 H           9.6170    7.0656   -2.6932 H       1  UNL1        0.0000
     37 H           9.4469    5.8108   -1.4673 H       1  UNL1        0.0000
     38 H          11.0141    6.5865   -1.7376 H       1  UNL1        0.0000
     39 C          10.7635    7.1175    1.5085 C.3     1  UNL1        0.0000
     40 H          10.4571    6.4335    2.3035 H       1  UNL1        0.0000
     41 C          11.2001    8.4061    2.2188 C.3     1  UNL1        0.0000
     42 H          11.5145    9.1738    1.5195 H       1  UNL1        0.0000
     43 H          12.0386    8.1762    2.8721 H       1  UNL1        0.0000
     44 H          10.3936    8.7906    2.8342 H       1  UNL1        0.0000
     45 C          11.9707    6.5141    0.7851 C.3     1  UNL1        0.0000
     46 H          11.7155    5.6126    0.2350 H       1  UNL1        0.0000
     47 H          12.7209    6.2507    1.5275 H       1  UNL1        0.0000
     48 H          12.4185    7.2269    0.0984 H       1  UNL1        0.0000
     49 C           5.0612    4.0212    1.5668 C.3     1  UNL1        0.0000
     50 C           6.0202    3.0720    3.6817 C.3     1  UNL1        0.0000
     51 H           6.6527    3.6635    4.3570 H       1  UNL1        0.0000
     52 C           4.6588    2.9181    4.3541 C.3     1  UNL1        0.0000
     53 H           4.0018    2.2913    3.7604 H       1  UNL1        0.0000
     54 H           4.1981    3.8933    4.4878 H       1  UNL1        0.0000
     55 H           4.7891    2.4612    5.3323 H       1  UNL1        0.0000
     56 C           6.6750    1.6882    3.5304 C.3     1  UNL1        0.0000
     57 H           5.9581    0.9399    3.2015 H       1  UNL1        0.0000
     58 H           7.0540    1.3750    4.5009 H       1  UNL1        0.0000
     59 H           7.5074    1.7122    2.8335 H       1  UNL1        0.0000
     60 C           4.7368    5.6531   -0.2725 C.3     1  UNL1        0.0000
     61 H           4.0864    4.8646   -0.6609 H       1  UNL1        0.0000
     62 C           3.9183    6.9285   -0.0838 C.3     1  UNL1        0.0000
     63 H           3.5438    7.2852   -1.0407 H       1  UNL1        0.0000
     64 H           4.5361    7.6919    0.3728 H       1  UNL1        0.0000
     65 H           3.0711    6.7484    0.5736 H       1  UNL1        0.0000
     66 C           5.8631    5.8487   -1.2885 C.3     1  UNL1        0.0000
     67 H           5.4607    6.2240   -2.2270 H       1  UNL1        0.0000
     68 H           6.3626    4.9012   -1.4794 H       1  UNL1        0.0000
     69 H           6.5924    6.5479   -0.8978 H       1  UNL1        0.0000
     70 C           2.7043    3.6296    1.0661 C.3     1  UNL1        0.0000
     71 H           2.7884    4.7168    1.1357 H       1  UNL1        0.0000
     72 C           2.0231    3.2778   -0.2594 C.3     1  UNL1        0.0000
     73 H           2.6402    3.5220   -1.1197 H       1  UNL1        0.0000
     74 H           1.1019    3.8513   -0.3362 H       1  UNL1        0.0000
     75 H           1.7632    2.2240   -0.3042 H       1  UNL1        0.0000
     76 C           1.7884    3.2122    2.2248 C.3     1  UNL1        0.0000
     77 H           0.8172    3.6821    2.0872 H       1  UNL1        0.0000
     78 H           2.1941    3.5560    3.1705 H       1  UNL1        0.0000
     79 H           1.6433    2.1378    2.2666 H       1  UNL1        0.0000
     80 C           4.5325    1.8007    0.8440 C.3     1  UNL1        0.0000
     81 H           5.5063    1.6986    1.3278 H       1  UNL1        0.0000
     82 C           4.7954    1.6927   -0.6672 C.3     1  UNL1        0.0000
     83 H           3.8769    1.5754   -1.2334 H       1  UNL1        0.0000
     84 H           5.4241    0.8262   -0.8602 H       1  UNL1        0.0000
     85 H           5.3190    2.5782   -1.0199 H       1  UNL1        0.0000
     86 C           3.6563    0.6411    1.3100 C.3     1  UNL1        0.0000
     87 H           2.6971    0.6301    0.8016 H       1  UNL1        0.0000
     88 H           3.4862    0.6796    2.3825 H       1  UNL1        0.0000
     89 H           4.1668   -0.2924    1.0812 H       1  UNL1        0.0000
@<TRIPOS>BOND
     1    36    35    1
     2    67    66    1
     3    34    31    1
     4    38    35    1
     5    35    37    1
     6    35    29    1
     7    68    66    1
     8    66    69    1
     9    66    60    1
    10    83    82    1
    11    73    72    1
    12    63    62    1
    13    85    82    1
    14    31    32    1
    15    31    29    1
    16    31    33    1
    17    30    29    1
    18    84    82    1
    19    18    15    1
    20    29     4    1
    21    82    80    1
    22    61    60    1
    23    16    15    1
    24    26    25    1
    25    74    72    1
    26    75    72    1
    27    60    62    1
    28    60     6    1
    29    72    70    1
    30    15    17    1
    31    15     9    1
    32    62    64    1
    33    62    65    1
    34    48    45    1
    35    46    45    1
    36    28    25    1
    37    25    27    1
    38    25    19    1
    39     4     8    1
    40     4    39    1
    41    45    39    1
    42    45    47    1
    43    87    86    1
    44    80     7    1
    45    80    86    1
    46    80    81    1
    47    20    19    1
    48     6    49    1
    49     6     1    1
    50    70    71    1
    51    70     7    1
    52    70    76    1
    53    89    86    1
    54     8     2    1
    55     8     3    1
    56     2     9    1
    57     2     1    1
    58     7    49    1
    59     9    10    1
    60     9    11    1
    61    86    88    1
    62    19     3    1
    63    19    21    1
    64    39    41    1
    65    39    40    1
    66    42    41    1
    67    12    11    1
    68    49     5    1
    69     3     1    1
    70    11    14    1
    71    11    13    1
    72    77    76    1
    73    41    44    1
    74    41    43    1
    75     1     5    1
    76    76    79    1
    77    76    78    1
    78     5    50    1
    79    22    21    1
    80    21    23    1
    81    21    24    1
    82    59    56    1
    83    57    56    1
    84    56    50    1
    85    56    58    1
    86    50    52    1
    87    50    51    1
    88    53    52    1
    89    52    54    1
    90    52    55    1
