@<TRIPOS>MOLECULE
1
 27 29 0 0 0
SMALL
GASTEIGER

@<TRIPOS>ATOM
      1 SI          2.0970   36.7579   -9.4679 Si      1  UNL1        0.0000
      2 SI          4.1733   37.8545   -9.4943 Si      1  UNL1        0.0000
      3 C           4.3004   39.4674   -8.5057 C.ar    1  UNL1        0.0000
      4 C           4.5106   40.7022   -9.1122 C.ar    1  UNL1        0.0000
      5 H           4.6413   40.7469  -10.1840 H       1  UNL1        0.0000
      6 C           4.5654   41.8696   -8.3717 C.ar    1  UNL1        0.0000
      7 H           4.7325   42.8160   -8.8675 H       1  UNL1        0.0000
      8 C           4.4109   41.8282   -6.9967 C.ar    1  UNL1        0.0000
      9 H           4.4536   42.7384   -6.4150 H       1  UNL1        0.0000
     10 C           4.2053   40.6094   -6.3719 C.ar    1  UNL1        0.0000
     11 H           4.0858   40.5676   -5.2971 H       1  UNL1        0.0000
     12 C           4.1515   39.4487   -7.1214 C.ar    1  UNL1        0.0000
     13 H           3.9777   38.5050   -6.6258 H       1  UNL1        0.0000
     14 C           4.6673   38.2640  -11.2712 C.ar    1  UNL1        0.0000
     15 C           3.8432   39.0559  -12.0648 C.ar    1  UNL1        0.0000
     16 H           2.9312   39.4565  -11.6427 H       1  UNL1        0.0000
     17 C           4.1623   39.3394  -13.3798 C.ar    1  UNL1        0.0000
     18 H           3.5085   39.9630  -13.9745 H       1  UNL1        0.0000
     19 C           5.3197   38.8223  -13.9375 C.ar    1  UNL1        0.0000
     20 H           5.5730   39.0406  -14.9654 H       1  UNL1        0.0000
     21 C           6.1478   38.0223  -13.1691 C.ar    1  UNL1        0.0000
     22 H           7.0516   37.6121  -13.5984 H       1  UNL1        0.0000
     23 C           5.8202   37.7506  -11.8529 C.ar    1  UNL1        0.0000
     24 H           6.4740   37.1280  -11.2586 H       1  UNL1        0.0000
     25 H           2.4637   35.6402  -10.4159 H       1  UNL1        0.0000
     26 H           1.4218   37.5635  -10.5518 H       1  UNL1        0.0000
     27 H           5.3253   37.0625   -8.9921 H       1  UNL1        0.0000
@<TRIPOS>BOND
     1    20    19    1
     2    18    17    1
     3    19    17   ar
     4    19    21   ar
     5    22    21    1
     6    17    15   ar
     7    21    23   ar
     8    15    16    1
     9    15    14   ar
    10    23    14   ar
    11    23    24    1
    12    14     2    1
    13    26     1    1
    14    25     1    1
    15     5     4    1
    16     2     1    1
    17     2    27    1
    18     2     3    1
    19     4     3   ar
    20     4     6   ar
    21     7     6    1
    22     3    12   ar
    23     6     8   ar
    24    12    13    1
    25    12    10   ar
    26     8     9    1
    27     8    10   ar
    28    10    11    1
    29     2    15    0
