@<TRIPOS>MOLECULE
1
 36 37 0 0 0
SMALL
GASTEIGER

@<TRIPOS>ATOM
      1 SI          3.6343    4.0148   13.3156 Si      1  UNL1        0.0000
      2 C           1.8583    4.8386   13.0212 C.3     1  UNL1        0.0000
      3 C           1.1731    4.3906   11.7318 C.3     1  UNL1        0.0000
      4 C           1.9945    6.3614   13.0368 C.3     1  UNL1        0.0000
      5 C           0.9914    4.4296   14.2155 C.3     1  UNL1        0.0000
      6 C           3.1843    2.1274   13.3905 C.ar    1  UNL1        0.0000
      7 C           2.9981    1.5398   14.6410 C.ar    1  UNL1        0.0000
      8 C           2.6730    0.2001   14.7614 C.ar    1  UNL1        0.0000
      9 C           2.5271   -0.5849   13.6294 C.ar    1  UNL1        0.0000
     10 C           2.7066   -0.0195   12.3787 C.ar    1  UNL1        0.0000
     11 C           3.0316    1.3209   12.2644 C.ar    1  UNL1        0.0000
     12 C           4.7135    4.0368   11.6966 C.ar    1  UNL1        0.0000
     13 C           5.7094    3.0651   11.5648 C.ar    1  UNL1        0.0000
     14 C           6.5729    3.0525   10.4846 C.ar    1  UNL1        0.0000
     15 C           6.4714    4.0243    9.5012 C.ar    1  UNL1        0.0000
     16 C           5.5000    5.0044    9.6148 C.ar    1  UNL1        0.0000
     17 C           4.6398    5.0075   10.7008 C.ar    1  UNL1        0.0000
     18 H           1.0373    3.3120   11.7308 H       1  UNL1        0.0000
     19 H           1.7650    4.6579   10.8600 H       1  UNL1        0.0000
     20 H           0.1921    4.8581   11.6351 H       1  UNL1        0.0000
     21 H           2.5241    6.6796   13.9365 H       1  UNL1        0.0000
     22 H           1.0124    6.8369   13.0256 H       1  UNL1        0.0000
     23 H           2.5428    6.7197   12.1671 H       1  UNL1        0.0000
     24 H           1.4944    4.6653   15.1567 H       1  UNL1        0.0000
     25 H           0.7944    3.3594   14.1956 H       1  UNL1        0.0000
     26 H           0.0334    4.9510   14.1925 H       1  UNL1        0.0000
     27 H           3.1086    2.1466   15.5340 H       1  UNL1        0.0000
     28 H           2.5359   -0.2364   15.7409 H       1  UNL1        0.0000
     29 H           2.2765   -1.6324   13.7217 H       1  UNL1        0.0000
     30 H           2.5939   -0.6259   11.4905 H       1  UNL1        0.0000
     31 H           3.1765    1.7501   11.2828 H       1  UNL1        0.0000
     32 H           5.7925    2.2986   12.3242 H       1  UNL1        0.0000
     33 H           7.3273    2.2821   10.4047 H       1  UNL1        0.0000
     34 H           7.1413    4.0163    8.6534 H       1  UNL1        0.0000
     35 H           5.4106    5.7665    8.8526 H       1  UNL1        0.0000
     36 H           3.8894    5.7818   10.7652 H       1  UNL1        0.0000
@<TRIPOS>BOND
     1    34    15    1
     2    35    16    1
     3    15    16   ar
     4    15    14   ar
     5    16    17   ar
     6    33    14    1
     7    14    13   ar
     8    17    36    1
     9    17    12   ar
    10    19     3    1
    11    31    11    1
    12    30    10    1
    13    13    12   ar
    14    13    32    1
    15    20     3    1
    16    12     1    1
    17    18     3    1
    18     3     2    1
    19    23     4    1
    20    11    10   ar
    21    11     6   ar
    22    10     9   ar
    23     2     4    1
    24     2     1    1
    25     2     5    1
    26    22     4    1
    27     4    21    1
    28     1     6    1
    29     6     7   ar
    30     9    29    1
    31     9     8   ar
    32    26     5    1
    33    25     5    1
    34     5    24    1
    35     7     8   ar
    36     7    27    1
    37     8    28    1
