@<TRIPOS>MOLECULE
7
 50 50 0 0 0
SMALL
GASTEIGER

@<TRIPOS>ATOM
      1 C           2.0960    5.9028   25.7615 C.3     1  UNL1        0.0000
      2 H           1.2278    5.2796   25.6136 H       1  UNL1        0.0000
      3 C           2.5948    6.3308   27.0048 C.2     1  UNL1        0.0000
      4 H           2.1784    6.0772   27.9664 H       1  UNL1        0.0000
      5 C           3.8357    6.9648   26.7818 C.2     1  UNL1        0.0000
      6 H           4.5274    7.2740   27.5549 H       1  UNL1        0.0000
      7 SI          0.6203    8.7363   27.9202 Si      1  UNL1        0.0000
      8 SI          2.1048    8.7141   29.8882 Si      1  UNL1        0.0000
      9 C           2.5265    6.9595   30.5543 C.3     1  UNL1        0.0000
     10 H           3.2906    6.4661   29.9615 H       1  UNL1        0.0000
     11 H           1.6511    6.3180   30.5637 H       1  UNL1        0.0000
     12 H           2.8968    7.0087   31.5752 H       1  UNL1        0.0000
     13 C           3.8298    9.5434   29.6775 C.3     1  UNL1        0.0000
     14 H           3.7528   10.6267   29.6730 H       1  UNL1        0.0000
     15 H           4.3247    9.2442   28.7579 H       1  UNL1        0.0000
     16 H           4.4900    9.2772   30.4996 H       1  UNL1        0.0000
     17 C           1.3428    9.6284   31.3936 C.3     1  UNL1        0.0000
     18 H           2.0062    9.6149   32.2546 H       1  UNL1        0.0000
     19 H           0.4077    9.1705   31.6956 H       1  UNL1        0.0000
     20 H           1.1340   10.6674   31.1609 H       1  UNL1        0.0000
     21 SI         -0.5257   10.8509   28.1700 Si      1  UNL1        0.0000
     22 C           0.5573   12.4045   28.5002 C.3     1  UNL1        0.0000
     23 H          -0.0593   13.2829   28.6745 H       1  UNL1        0.0000
     24 H           1.2221   12.6379   27.6760 H       1  UNL1        0.0000
     25 H           1.1740   12.2673   29.3832 H       1  UNL1        0.0000
     26 C          -1.8884   10.9755   29.5111 C.3     1  UNL1        0.0000
     27 H          -1.4745   10.8670   30.5083 H       1  UNL1        0.0000
     28 H          -2.6354   10.2000   29.3796 H       1  UNL1        0.0000
     29 H          -2.4042   11.9321   29.4750 H       1  UNL1        0.0000
     30 C          -1.4274   11.1041   26.4949 C.3     1  UNL1        0.0000
     31 H          -1.4470   12.1431   26.1798 H       1  UNL1        0.0000
     32 H          -2.4590   10.7760   26.5634 H       1  UNL1        0.0000
     33 H          -0.9540   10.5203   25.7040 H       1  UNL1        0.0000
     34 SI         -1.0805    7.1642   28.6322 Si      1  UNL1        0.0000
     35 C          -1.5762    7.2715   30.4826 C.3     1  UNL1        0.0000
     36 H          -1.8530    8.2828   30.7593 H       1  UNL1        0.0000
     37 H          -0.7594    6.9678   31.1299 H       1  UNL1        0.0000
     38 H          -2.4246    6.6292   30.7075 H       1  UNL1        0.0000
     39 C          -2.6938    7.5012   27.6521 C.3     1  UNL1        0.0000
     40 H          -2.4893    7.9111   26.6680 H       1  UNL1        0.0000
     41 H          -3.3159    8.2201   28.1753 H       1  UNL1        0.0000
     42 H          -3.2853    6.6014   27.5142 H       1  UNL1        0.0000
     43 C          -0.6330    5.3096   28.4204 C.3     1  UNL1        0.0000
     44 H          -1.4913    4.6750   28.6258 H       1  UNL1        0.0000
     45 H           0.1510    5.0166   29.1121 H       1  UNL1        0.0000
     46 H          -0.2886    5.0718   27.4209 H       1  UNL1        0.0000
     47 C           4.1128    6.9047   25.4026 C.3     1  UNL1        0.0000
     48 C           3.0328    6.2589   24.7670 C.3     1  UNL1        0.0000
     49 H           5.0548    7.1678   24.9364 H       1  UNL1        0.0000
     50 H           3.0025    5.9393   23.7367 H       1  UNL1        0.0000
@<TRIPOS>BOND
     1    50    48    1
     2    48    47    1
     3    48     1    1
     4    49    47    1
     5    47     5    1
     6     2     1    1
     7    33    30    1
     8     1     3    1
     9    31    30    1
    10    30    32    1
    11    30    21    1
    12    40    39    1
    13     5     3    2
    14     5     6    1
    15     3     4    1
    16    46    43    1
    17    42    39    1
    18    39    41    1
    19    39    34    1
    20    24    22    1
    21     7    21    1
    22     7    34    1
    23     7     8    1
    24    21    22    1
    25    21    26    1
    26    43    44    1
    27    43    34    1
    28    43    45    1
    29    22    23    1
    30    22    25    1
    31    34    35    1
    32    15    13    1
    33    28    26    1
    34    29    26    1
    35    26    27    1
    36    14    13    1
    37    13     8    1
    38    13    16    1
    39     8     9    1
    40     8    17    1
    41    10     9    1
    42    35    38    1
    43    35    36    1
    44    35    37    1
    45     9    11    1
    46     9    12    1
    47    20    17    1
    48    17    19    1
    49    17    18    1
    50     7     3    0
