@<TRIPOS>MOLECULE
1
 40 39 0 0 0
SMALL
GASTEIGER

@<TRIPOS>ATOM
      1 SI          2.4972    4.9677   35.7561 Si      1  UNL1        0.0000
      2 SI          3.2370    6.2186   33.8115 Si      1  UNL1        0.0000
      3 SI          0.0839    5.0227   35.5970 Si      1  UNL1        0.0000
      4 SI          2.9960    2.6734   35.1552 Si      1  UNL1        0.0000
      5 C           4.9895    5.7272   33.2126 C.3     1  UNL1        0.0000
      6 H           5.0889    4.6492   33.1340 H       1  UNL1        0.0000
      7 H           5.7621    6.0801   33.8877 H       1  UNL1        0.0000
      8 H           5.2048    6.1431   32.2317 H       1  UNL1        0.0000
      9 C           3.2872    8.1186   34.0716 C.3     1  UNL1        0.0000
     10 H           3.7760    8.6185   33.2391 H       1  UNL1        0.0000
     11 H           3.8248    8.3943   34.9734 H       1  UNL1        0.0000
     12 H           2.2867    8.5328   34.1490 H       1  UNL1        0.0000
     13 C           2.0746    5.9508   32.3118 C.3     1  UNL1        0.0000
     14 H           2.3967    6.5203   31.4437 H       1  UNL1        0.0000
     15 H           1.0592    6.2557   32.5423 H       1  UNL1        0.0000
     16 H           2.0423    4.9064   32.0224 H       1  UNL1        0.0000
     17 C          -0.7298    6.7256   35.2571 C.3     1  UNL1        0.0000
     18 H          -1.7968    6.6262   35.0722 H       1  UNL1        0.0000
     19 H          -0.2950    7.1940   34.3793 H       1  UNL1        0.0000
     20 H          -0.6092    7.4147   36.0846 H       1  UNL1        0.0000
     21 C          -0.7169    3.8754   34.2897 C.3     1  UNL1        0.0000
     22 H          -0.4005    2.8464   34.4207 H       1  UNL1        0.0000
     23 H          -0.4453    4.1753   33.2827 H       1  UNL1        0.0000
     24 H          -1.8024    3.8899   34.3510 H       1  UNL1        0.0000
     25 C          -0.5352    4.3878   37.2987 C.3     1  UNL1        0.0000
     26 H           0.1652    4.6470   38.0951 H       1  UNL1        0.0000
     27 H          -0.6315    3.3075   37.2914 H       1  UNL1        0.0000
     28 H          -1.5066    4.7915   37.5673 H       1  UNL1        0.0000
     29 C           2.6231    2.2566   33.3228 C.3     1  UNL1        0.0000
     30 H           2.7144    1.1914   33.1245 H       1  UNL1        0.0000
     31 H           3.3084    2.7698   32.6553 H       1  UNL1        0.0000
     32 H           1.6169    2.5522   33.0474 H       1  UNL1        0.0000
     33 C           1.8922    1.5145   36.2077 C.3     1  UNL1        0.0000
     34 H           0.8785    1.4927   35.8222 H       1  UNL1        0.0000
     35 H           1.8366    1.8419   37.2411 H       1  UNL1        0.0000
     36 H           2.2593    0.4925   36.2097 H       1  UNL1        0.0000
     37 C           4.8060    2.0906   35.3915 C.3     1  UNL1        0.0000
     38 H           5.1623    2.2455   36.4032 H       1  UNL1        0.0000
     39 H           5.4784    2.6216   34.7249 H       1  UNL1        0.0000
     40 H           4.9092    1.0310   35.1706 H       1  UNL1        0.0000
@<TRIPOS>BOND
     1    14    13    1
     2    16    13    1
     3     8     5    1
     4    13    15    1
     5    13     2    1
     6    31    29    1
     7    32    29    1
     8    30    29    1
     9     6     5    1
    10     5     2    1
    11     5     7    1
    12    10     9    1
    13    23    21    1
    14    29     4    1
    15     2     9    1
    16     2     1    1
    17     9    12    1
    18     9    11    1
    19    21    24    1
    20    21    22    1
    21    21     3    1
    22    19    17    1
    23    39    37    1
    24    18    17    1
    25     4    37    1
    26     4     1    1
    27     4    33    1
    28    40    37    1
    29    17     3    1
    30    17    20    1
    31    37    38    1
    32     3     1    1
    33     3    25    1
    34    34    33    1
    35    33    36    1
    36    33    35    1
    37    27    25    1
    38    25    28    1
    39    25    26    1
