@<TRIPOS>MOLECULE
1
 40 39 0 0 0
SMALL
GASTEIGER

@<TRIPOS>ATOM
      1 SI          3.0536    4.6465   40.7837 Si      1  UNL1        0.0000
      2 SI          3.7670    5.9126   42.7284 Si      1  UNL1        0.0000
      3 C           2.4652    7.1845   43.3272 C.3     1  UNL1        0.0000
      4 H           1.4819    6.7316   43.4057 H       1  UNL1        0.0000
      5 H           2.3845    8.0300   42.6520 H       1  UNL1        0.0000
      6 H           2.7176    7.5789   44.3081 H       1  UNL1        0.0000
      7 C           5.3873    6.9060   42.4684 C.3     1  UNL1        0.0000
      8 H           5.5757    7.5794   43.3008 H       1  UNL1        0.0000
      9 H           5.3574    7.5094   41.5665 H       1  UNL1        0.0000
     10 H           6.2463    6.2467   42.3911 H       1  UNL1        0.0000
     11 C           4.1163    4.7721   44.2283 C.3     1  UNL1        0.0000
     12 H           4.4485    5.3359   45.0962 H       1  UNL1        0.0000
     13 H           4.8879    4.0450   43.9978 H       1  UNL1        0.0000
     14 H           3.2279    4.2221   44.5177 H       1  UNL1        0.0000
     15 SI          4.3077    2.5840   40.9431 Si      1  UNL1        0.0000
     16 C           6.1892    2.7307   41.2829 C.3     1  UNL1        0.0000
     17 H           6.6367    1.7570   41.4678 H       1  UNL1        0.0000
     18 H           6.3776    3.3415   42.1606 H       1  UNL1        0.0000
     19 H           6.7257    3.1797   40.4553 H       1  UNL1        0.0000
     20 C           3.7146    1.3168   42.2504 C.3     1  UNL1        0.0000
     21 H           2.6653    1.0761   42.1191 H       1  UNL1        0.0000
     22 H           3.8382    1.7021   43.2573 H       1  UNL1        0.0000
     23 H           4.2701    0.3841   42.1892 H       1  UNL1        0.0000
     24 C           4.0675    1.7303   39.2413 C.3     1  UNL1        0.0000
     25 H           3.9417    2.4667   38.4449 H       1  UNL1        0.0000
     26 H           3.1800    1.1067   39.2487 H       1  UNL1        0.0000
     27 H           4.9030    1.0910   38.9729 H       1  UNL1        0.0000
     28 SI          0.8173    3.9313   41.3849 Si      1  UNL1        0.0000
     29 C           0.6427    3.4000   43.2173 C.3     1  UNL1        0.0000
     30 H          -0.3255    2.9465   43.4156 H       1  UNL1        0.0000
     31 H           0.7445    4.2501   43.8847 H       1  UNL1        0.0000
     32 H           1.4017    2.6763   43.4928 H       1  UNL1        0.0000
     33 C           0.3657    2.3959   40.3324 C.3     1  UNL1        0.0000
     34 H           0.8536    1.5071   40.7180 H       1  UNL1        0.0000
     35 H           0.6771    2.5114   39.2990 H       1  UNL1        0.0000
     36 H          -0.7030    2.2028   40.3303 H       1  UNL1        0.0000
     37 C          -0.5924    5.2073   41.1485 C.3     1  UNL1        0.0000
     38 H          -0.6364    5.5934   40.1368 H       1  UNL1        0.0000
     39 H          -0.4689    6.0552   41.8151 H       1  UNL1        0.0000
     40 H          -1.5616    4.7669   41.3693 H       1  UNL1        0.0000
@<TRIPOS>BOND
     1    25    24    1
     2    27    24    1
     3    24    26    1
     4    24    15    1
     5    35    33    1
     6    38    37    1
     7    36    33    1
     8    33    34    1
     9    33    28    1
    10    19    16    1
    11     1    15    1
    12     1    28    1
    13     1     2    1
    14    15    16    1
    15    15    20    1
    16    37    40    1
    17    37    28    1
    18    37    39    1
    19    16    17    1
    20    16    18    1
    21    28    29    1
    22     9     7    1
    23    21    20    1
    24    23    20    1
    25    20    22    1
    26    10     7    1
    27     7     2    1
    28     7     8    1
    29     5     3    1
    30     2     3    1
    31     2    11    1
    32    29    30    1
    33    29    32    1
    34    29    31    1
    35     3     4    1
    36     3     6    1
    37    13    11    1
    38    11    14    1
    39    11    12    1
