@<TRIPOS>MOLECULE
1
 55 54 0 0 0
SMALL
GASTEIGER

@<TRIPOS>ATOM
      1 SI          3.2480    0.6109    3.6368 Si      1  UNL1        0.0000
      2 SI          0.8219    0.7771    3.3857 Si      1  UNL1        0.0000
      3 SI          4.0900   -0.6253    1.7029 Si      1  UNL1        0.0000
      4 SI          3.4515   -1.1011    5.3604 Si      1  UNL1        0.0000
      5 C           3.4613   -2.4306    1.5326 C.3     1  UNL1        0.0000
      6 H           3.8521   -2.9030    0.6349 H       1  UNL1        0.0000
      7 H           2.3791   -2.4743    1.4774 H       1  UNL1        0.0000
      8 H           3.7714   -3.0351    2.3785 H       1  UNL1        0.0000
      9 C           0.2424    2.3616    2.3815 C.3     1  UNL1        0.0000
     10 C           0.8057    3.6554    3.0203 C.3     1  UNL1        0.0000
     11 H           1.8558    3.4425    3.3135 H       1  UNL1        0.0000
     12 C           3.7070    0.1342   -0.0250 C.3     1  UNL1        0.0000
     13 H           4.2481   -0.3939   -0.8062 H       1  UNL1        0.0000
     14 H           3.9794    1.1821   -0.0996 H       1  UNL1        0.0000
     15 H           2.6508    0.0545   -0.2590 H       1  UNL1        0.0000
     16 C           6.0019   -0.7799    1.8243 C.3     1  UNL1        0.0000
     17 H           6.2908   -1.7933    2.0853 H       1  UNL1        0.0000
     18 H           6.4099   -0.1282    2.5926 H       1  UNL1        0.0000
     19 H           6.5003   -0.5393    0.8887 H       1  UNL1        0.0000
     20 C          -1.2828    2.4199    2.2576 C.3     1  UNL1        0.0000
     21 H          -1.6006    3.3211    1.7348 H       1  UNL1        0.0000
     22 H          -1.7715    2.3971    3.2266 H       1  UNL1        0.0000
     23 H          -1.6361    1.5673    1.6838 H       1  UNL1        0.0000
     24 C           3.1618   -0.4868    7.1605 C.3     1  UNL1        0.0000
     25 H           4.0953   -0.1925    7.6301 H       1  UNL1        0.0000
     26 H           2.7317   -1.2732    7.7746 H       1  UNL1        0.0000
     27 H           2.4827    0.3592    7.2036 H       1  UNL1        0.0000
     28 C           5.1719   -1.9370    5.3567 C.3     1  UNL1        0.0000
     29 H           5.9643   -1.1989    5.4101 H       1  UNL1        0.0000
     30 H           5.3275   -2.5148    4.4516 H       1  UNL1        0.0000
     31 H           5.2948   -2.6111    6.2009 H       1  UNL1        0.0000
     32 C           0.8367    4.8652    2.0786 C.3     1  UNL1        0.0000
     33 H          -0.1464    5.0553    1.6553 H       1  UNL1        0.0000
     34 H           1.5445    4.7317    1.2662 H       1  UNL1        0.0000
     35 H           1.1326    5.7534    2.6348 H       1  UNL1        0.0000
     36 C           0.0260    4.0613    4.2716 C.3     1  UNL1        0.0000
     37 H           0.5412    4.8573    4.8043 H       1  UNL1        0.0000
     38 H          -0.0990    3.2258    4.9489 H       1  UNL1        0.0000
     39 H          -0.9570    4.4359    3.9993 H       1  UNL1        0.0000
     40 C           2.1992   -2.5457    5.1629 C.3     1  UNL1        0.0000
     41 H           2.4464   -3.3721    5.8238 H       1  UNL1        0.0000
     42 H           2.1902   -2.9317    4.1504 H       1  UNL1        0.0000
     43 H           1.1886   -2.2327    5.4015 H       1  UNL1        0.0000
     44 C           0.8022    2.1933    0.9670 C.3     1  UNL1        0.0000
     45 H           0.4710    2.9929    0.3080 H       1  UNL1        0.0000
     46 H           0.4534    1.2588    0.5382 H       1  UNL1        0.0000
     47 H           1.8886    2.1678    0.9810 H       1  UNL1        0.0000
     48 C           0.0777   -0.7264    2.4562 C.3     1  UNL1        0.0000
     49 H          -1.0053   -0.6796    2.3841 H       1  UNL1        0.0000
     50 H           0.3250   -1.6387    2.9865 H       1  UNL1        0.0000
     51 H           0.4733   -0.8218    1.4512 H       1  UNL1        0.0000
     52 C          -0.0674    0.6728    5.0882 C.3     1  UNL1        0.0000
     53 H           0.4161    1.2694    5.8544 H       1  UNL1        0.0000
     54 H          -0.0429   -0.3540    5.4341 H       1  UNL1        0.0000
     55 H          -1.1110    0.9697    5.0465 H       1  UNL1        0.0000
@<TRIPOS>BOND
     1    13    12    1
     2    15    12    1
     3    14    12    1
     4    12     3    1
     5    45    44    1
     6    46    44    1
     7     6     5    1
     8    19    16    1
     9    44    47    1
    10    44     9    1
    11    34    32    1
    12    51    48    1
    13     7     5    1
    14     5     3    1
    15     5     8    1
    16    33    32    1
    17    23    20    1
    18     3    16    1
    19     3     1    1
    20    21    20    1
    21    16    17    1
    22    16    18    1
    23    32    35    1
    24    32    10    1
    25    20     9    1
    26    20    22    1
    27     9    10    1
    28     9     2    1
    29    49    48    1
    30    48    50    1
    31    48     2    1
    32    10    11    1
    33    10    36    1
    34     2     1    1
    35     2    52    1
    36     1     4    1
    37    39    36    1
    38    42    40    1
    39    36    37    1
    40    36    38    1
    41    30    28    1
    42    55    52    1
    43    52    54    1
    44    52    53    1
    45    40     4    1
    46    40    43    1
    47    40    41    1
    48    28     4    1
    49    28    29    1
    50    28    31    1
    51     4    24    1
    52    24    27    1
    53    24    25    1
    54    24    26    1
