@<TRIPOS>MOLECULE
1
 50 50 0 0 0
SMALL
GASTEIGER

@<TRIPOS>ATOM
      1 SI          2.4216    3.1945   -0.6401 Si      1  UNL1        0.0000
      2 SI          2.7782    1.7953   -2.5644 Si      1  UNL1        0.0000
      3 SI          1.7895    2.2870   -4.6631 Si      1  UNL1        0.0000
      4 SI          2.1207    4.5333   -5.3415 Si      1  UNL1        0.0000
      5 SI          1.8679    6.1023   -3.5834 Si      1  UNL1        0.0000
      6 SI          2.8332    5.3875   -1.5384 Si      1  UNL1        0.0000
      7 C           0.4758    3.2333   -0.6748 C.3     1  UNL1        0.0000
      8 C           2.3086   -0.0122   -2.0916 C.3     1  UNL1        0.0000
      9 C           4.6553    1.7001   -2.9478 C.3     1  UNL1        0.0000
     10 C           2.3469    1.1039   -6.0904 C.3     1  UNL1        0.0000
     11 C          -0.1092    2.0128   -4.5778 C.3     1  UNL1        0.0000
     12 C           3.9163    4.6836   -6.0043 C.3     1  UNL1        0.0000
     13 C           1.0294    4.9899   -6.8707 C.3     1  UNL1        0.0000
     14 C           2.4965    7.8321   -4.1837 C.3     1  UNL1        0.0000
     15 C          -0.0201    6.3700   -3.3560 C.3     1  UNL1        0.0000
     16 C           2.3842    6.6843   -0.1863 C.3     1  UNL1        0.0000
     17 C           4.7187    5.6222   -1.8014 C.3     1  UNL1        0.0000
     18 H           0.0684    2.2578   -0.4213 H       1  UNL1        0.0000
     19 H           0.0689    3.5164   -1.6419 H       1  UNL1        0.0000
     20 H           0.0933    3.9378    0.0594 H       1  UNL1        0.0000
     21 H           1.2374   -0.0932   -1.9295 H       1  UNL1        0.0000
     22 H           2.7980   -0.3070   -1.1650 H       1  UNL1        0.0000
     23 H           2.5831   -0.7391   -2.8525 H       1  UNL1        0.0000
     24 H           5.0178    2.6536   -3.3182 H       1  UNL1        0.0000
     25 H           4.8917    0.9475   -3.6942 H       1  UNL1        0.0000
     26 H           5.2243    1.4636   -2.0549 H       1  UNL1        0.0000
     27 H           2.1431    0.0633   -5.8510 H       1  UNL1        0.0000
     28 H           3.4169    1.1962   -6.2512 H       1  UNL1        0.0000
     29 H           1.8528    1.3263   -7.0332 H       1  UNL1        0.0000
     30 H          -0.5473    2.6844   -3.8475 H       1  UNL1        0.0000
     31 H          -0.3562    1.0005   -4.2735 H       1  UNL1        0.0000
     32 H          -0.6001    2.1992   -5.5284 H       1  UNL1        0.0000
     33 H           4.1092    4.0033   -6.8282 H       1  UNL1        0.0000
     34 H           4.6186    4.4424   -5.2133 H       1  UNL1        0.0000
     35 H           4.1460    5.6876   -6.3476 H       1  UNL1        0.0000
     36 H          -0.0223    4.9298   -6.6077 H       1  UNL1        0.0000
     37 H           1.1957    4.3159   -7.7073 H       1  UNL1        0.0000
     38 H           1.2206    6.0007   -7.2221 H       1  UNL1        0.0000
     39 H           3.5650    7.7920   -4.3728 H       1  UNL1        0.0000
     40 H           2.3279    8.6020   -3.4350 H       1  UNL1        0.0000
     41 H           2.0125    8.1560   -5.1020 H       1  UNL1        0.0000
     42 H          -0.4950    5.4347   -3.0800 H       1  UNL1        0.0000
     43 H          -0.5026    6.7265   -4.2612 H       1  UNL1        0.0000
     44 H          -0.2330    7.0846   -2.5671 H       1  UNL1        0.0000
     45 H           1.3111    6.6952   -0.0175 H       1  UNL1        0.0000
     46 H           2.6878    7.6960   -0.4452 H       1  UNL1        0.0000
     47 H           2.8569    6.4324    0.7613 H       1  UNL1        0.0000
     48 H           5.0670    5.0129   -2.6293 H       1  UNL1        0.0000
     49 H           5.2754    5.3185   -0.9209 H       1  UNL1        0.0000
     50 H           4.9859    6.6523   -2.0177 H       1  UNL1        0.0000
@<TRIPOS>BOND
     1    37    13    1
     2    38    13    1
     3    29    10    1
     4    13    36    1
     5    13     4    1
     6    33    12    1
     7    35    12    1
     8    28    10    1
     9    10    27    1
    10    10     3    1
    11    12     4    1
    12    12    34    1
    13    32    11    1
    14     4     3    1
    15     4     5    1
    16    41    14    1
    17     3    11    1
    18     3     2    1
    19    11    31    1
    20    11    30    1
    21    39    14    1
    22    43    15    1
    23    14     5    1
    24    14    40    1
    25    25     9    1
    26     5    15    1
    27     5     6    1
    28    15    42    1
    29    15    44    1
    30    24     9    1
    31     9     2    1
    32     9    26    1
    33    23     8    1
    34    48    17    1
    35     2     8    1
    36     2     1    1
    37     8    21    1
    38     8    22    1
    39    50    17    1
    40    17     6    1
    41    17    49    1
    42    19     7    1
    43     6     1    1
    44     6    16    1
    45     7     1    1
    46     7    18    1
    47     7    20    1
    48    46    16    1
    49    16    45    1
    50    16    47    1
