@<TRIPOS>MOLECULE
1
 42 44 0 0 0
SMALL
GASTEIGER

@<TRIPOS>ATOM
      1 SI          1.7537   11.3405   10.7469 Si      1  UNL1        0.0000
      2 F           1.9974   10.2107   11.9327 F       1  UNL1        0.0000
      3 N           0.9836   10.1555    9.5305 N.3     1  UNL1        0.0000
      4 C          -0.2423   10.5225    9.8593 C.3     1  UNL1        0.0000
      5 N          -0.1056   11.3426   10.8863 N.3     1  UNL1        0.0000
      6 C          -1.0935   12.0871   11.6412 C.3     1  UNL1        0.0000
      7 C          -0.3337   12.8368   12.7373 C.3     1  UNL1        0.0000
      8 H           0.3268   13.5827   12.3014 H       1  UNL1        0.0000
      9 H           0.2646   12.1411   13.3190 H       1  UNL1        0.0000
     10 H          -1.0334   13.3369   13.4013 H       1  UNL1        0.0000
     11 C          -2.0978   11.1272   12.2914 C.3     1  UNL1        0.0000
     12 H          -2.7161   10.6402   11.5420 H       1  UNL1        0.0000
     13 H          -2.7479   11.6765   12.9671 H       1  UNL1        0.0000
     14 H          -1.5669   10.3673   12.8593 H       1  UNL1        0.0000
     15 C          -1.8224   13.0950   10.7452 C.3     1  UNL1        0.0000
     16 H          -1.1022   13.7154   10.2168 H       1  UNL1        0.0000
     17 H          -2.4516   13.7387   11.3541 H       1  UNL1        0.0000
     18 H          -2.4522   12.5884   10.0183 H       1  UNL1        0.0000
     19 C           1.4609    9.2978    8.4644 C.3     1  UNL1        0.0000
     20 C           0.8759    7.8882    8.6183 C.3     1  UNL1        0.0000
     21 H          -0.1960    7.8872    8.4397 H       1  UNL1        0.0000
     22 H           1.0671    7.5171    9.6222 H       1  UNL1        0.0000
     23 H           1.3428    7.2160    7.9035 H       1  UNL1        0.0000
     24 C           1.1026    9.8782    7.0915 C.3     1  UNL1        0.0000
     25 H           1.5921    9.3011    6.3115 H       1  UNL1        0.0000
     26 H           1.4395   10.9098    7.0211 H       1  UNL1        0.0000
     27 H           0.0296    9.8447    6.9202 H       1  UNL1        0.0000
     28 C           2.9828    9.2290    8.6062 C.3     1  UNL1        0.0000
     29 H           3.3916    8.5183    7.8932 H       1  UNL1        0.0000
     30 H           3.2502    8.9109    9.6100 H       1  UNL1        0.0000
     31 H           3.4277   10.2038    8.4206 H       1  UNL1        0.0000
     32 C          -1.4965   10.1170    9.2068 C.ar    1  UNL1        0.0000
     33 C          -2.1840    8.9886    9.6433 C.ar    1  UNL1        0.0000
     34 H          -1.7904    8.4114   10.4666 H       1  UNL1        0.0000
     35 C          -3.3632    8.6136    9.0240 C.ar    1  UNL1        0.0000
     36 H          -3.8920    7.7373    9.3672 H       1  UNL1        0.0000
     37 C          -3.8633    9.3590    7.9690 C.ar    1  UNL1        0.0000
     38 H          -4.7831    9.0642    7.4875 H       1  UNL1        0.0000
     39 C          -3.1815   10.4826    7.5323 C.ar    1  UNL1        0.0000
     40 H          -3.5679   11.0655    6.7100 H       1  UNL1        0.0000
     41 C          -2.0012   10.8637    8.1467 C.ar    1  UNL1        0.0000
     42 H          -1.4670   11.7393    7.8078 H       1  UNL1        0.0000
@<TRIPOS>BOND
     1    25    24    1
     2    40    39    1
     3    27    24    1
     4    26    24    1
     5    24    19    1
     6    38    37    1
     7    39    37   ar
     8    39    41   ar
     9    42    41    1
    10    29    28    1
    11    23    20    1
    12    37    35   ar
    13    41    32   ar
    14    31    28    1
    15    21    20    1
    16    19    28    1
    17    19    20    1
    18    19     3    1
    19    28    30    1
    20    20    22    1
    21    35    36    1
    22    35    33   ar
    23    32    33   ar
    24    32     4    1
    25     3     4    1
    26     3     1    1
    27    33    34    1
    28     4     5    1
    29    18    15    1
    30    16    15    1
    31    15    17    1
    32    15     6    1
    33     1     5    1
    34     1     2    1
    35     5     6    1
    36    12    11    1
    37     6    11    1
    38     6     7    1
    39    11    14    1
    40    11    13    1
    41     8     7    1
    42     7     9    1
    43     7    10    1
    44     1     4    0
