@<TRIPOS>MOLECULE
3
 42 44 0 0 0
SMALL
GASTEIGER

@<TRIPOS>ATOM
      1 N           6.3906   -1.1547    7.6418 N.3     1  UNL1        0.0000
      2 CL          3.4857   -1.5760    7.1148 Cl      1  UNL1        0.0000
      3 SI          4.8530   -0.1091    7.5926 Si      1  UNL1        0.0000
      4 N           5.7667   -0.0299    5.9741 N.3     1  UNL1        0.0000
      5 C           6.7536   -0.7805    6.4284 C.3     1  UNL1        0.0000
      6 C           8.0071   -1.1133    5.7350 C.ar    1  UNL1        0.0000
      7 C           9.1177   -0.2874    5.8779 C.ar    1  UNL1        0.0000
      8 H           9.0506    0.5944    6.4985 H       1  UNL1        0.0000
      9 C          10.2987   -0.5980    5.2267 C.ar    1  UNL1        0.0000
     10 H          11.1572    0.0464    5.3414 H       1  UNL1        0.0000
     11 C          10.3792   -1.7294    4.4318 C.ar    1  UNL1        0.0000
     12 H          11.3016   -1.9689    3.9251 H       1  UNL1        0.0000
     13 C           9.2752   -2.5532    4.2878 C.ar    1  UNL1        0.0000
     14 H           9.3341   -3.4359    3.6691 H       1  UNL1        0.0000
     15 C           8.0909   -2.2493    4.9360 C.ar    1  UNL1        0.0000
     16 H           7.2279   -2.8896    4.8263 H       1  UNL1        0.0000
     17 C           7.0643   -1.9885    8.6168 C.3     1  UNL1        0.0000
     18 C           7.2919   -3.3929    8.0423 C.3     1  UNL1        0.0000
     19 H           7.6609   -4.0532    8.8224 H       1  UNL1        0.0000
     20 H           8.0215   -3.3728    7.2370 H       1  UNL1        0.0000
     21 H           6.3554   -3.7939    7.6614 H       1  UNL1        0.0000
     22 C           8.3986   -1.3651    9.0420 C.3     1  UNL1        0.0000
     23 H           8.8192   -1.9296    9.8699 H       1  UNL1        0.0000
     24 H           8.2471   -0.3380    9.3661 H       1  UNL1        0.0000
     25 H           9.1133   -1.3733    8.2228 H       1  UNL1        0.0000
     26 C           6.1398   -2.0912    9.8313 C.3     1  UNL1        0.0000
     27 H           6.5753   -2.7532   10.5748 H       1  UNL1        0.0000
     28 H           5.1721   -2.4885    9.5369 H       1  UNL1        0.0000
     29 H           5.9913   -1.1128   10.2836 H       1  UNL1        0.0000
     30 C           5.6003    0.6491    4.7050 C.3     1  UNL1        0.0000
     31 C           6.7001    1.6963    4.4958 C.3     1  UNL1        0.0000
     32 H           6.4783    2.2887    3.6122 H       1  UNL1        0.0000
     33 H           7.6695    1.2239    4.3580 H       1  UNL1        0.0000
     34 H           6.7524    2.3625    5.3540 H       1  UNL1        0.0000
     35 C           4.2372    1.3425    4.7448 C.3     1  UNL1        0.0000
     36 H           4.0379    1.8248    3.7918 H       1  UNL1        0.0000
     37 H           4.2148    2.0986    5.5270 H       1  UNL1        0.0000
     38 H           3.4505    0.6183    4.9387 H       1  UNL1        0.0000
     39 C           5.6090   -0.3692    3.5572 C.3     1  UNL1        0.0000
     40 H           5.3392    0.1239    2.6272 H       1  UNL1        0.0000
     41 H           4.8864   -1.1575    3.7554 H       1  UNL1        0.0000
     42 H           6.5932   -0.8140    3.4360 H       1  UNL1        0.0000
@<TRIPOS>BOND
     1    40    39    1
     2    42    39    1
     3    39    41    1
     4    39    30    1
     5    32    31    1
     6    14    13    1
     7    36    35    1
     8    12    11    1
     9    13    11   ar
    10    13    15   ar
    11    33    31    1
    12    11     9   ar
    13    31    30    1
    14    31    34    1
    15    30    35    1
    16    30     4    1
    17    35    38    1
    18    35    37    1
    19    16    15    1
    20    15     6   ar
    21     9    10    1
    22     9     7   ar
    23     6     7   ar
    24     6     5    1
    25     7     8    1
    26     4     5    1
    27     4     3    1
    28     5     1    1
    29     2     3    1
    30    20    18    1
    31     3     1    1
    32     1    17    1
    33    21    18    1
    34    18    17    1
    35    18    19    1
    36    25    22    1
    37    17    22    1
    38    17    26    1
    39    22    24    1
    40    22    23    1
    41    28    26    1
    42    26    29    1
    43    26    27    1
    44     3     5    0
