@<TRIPOS>MOLECULE
1
 34 36 0 0 0
SMALL
GASTEIGER

@<TRIPOS>ATOM
      1 SI         11.3654    2.3370    3.9174 Si      1  UNL1        0.0000
      2 C          13.1352    2.2456    3.1949 C.ar    1  UNL1        0.0000
      3 C          13.4669    1.2783    2.2501 C.ar    1  UNL1        0.0000
      4 H          12.7033    0.5985    1.8925 H       1  UNL1        0.0000
      5 C          14.7543    1.1656    1.7600 C.ar    1  UNL1        0.0000
      6 H          14.9875    0.4076    1.0260 H       1  UNL1        0.0000
      7 C          15.7423    2.0253    2.2094 C.ar    1  UNL1        0.0000
      8 H          16.7487    1.9436    1.8253 H       1  UNL1        0.0000
      9 C          15.4330    2.9879    3.1547 C.ar    1  UNL1        0.0000
     10 H          16.1997    3.6595    3.5137 H       1  UNL1        0.0000
     11 C          14.1428    3.0930    3.6430 C.ar    1  UNL1        0.0000
     12 H          13.9124    3.8455    4.3830 H       1  UNL1        0.0000
     13 C          11.3896    0.9465    5.2306 C.ar    1  UNL1        0.0000
     14 C          12.4540    0.9190    6.1286 C.ar    1  UNL1        0.0000
     15 H          13.2239    1.6726    6.0527 H       1  UNL1        0.0000
     16 C          12.5375   -0.0522    7.1079 C.ar    1  UNL1        0.0000
     17 H          13.3714   -0.0541    7.7949 H       1  UNL1        0.0000
     18 C          11.5543   -1.0231    7.2085 C.ar    1  UNL1        0.0000
     19 H          11.6176   -1.7841    7.9725 H       1  UNL1        0.0000
     20 C          10.4912   -1.0133    6.3232 C.ar    1  UNL1        0.0000
     21 H           9.7201   -1.7672    6.3924 H       1  UNL1        0.0000
     22 C          10.4143   -0.0367    5.3459 C.ar    1  UNL1        0.0000
     23 H           9.5755   -0.0453    4.6604 H       1  UNL1        0.0000
     24 C          11.2480    3.9661    4.9087 C.ar    1  UNL1        0.0000
     25 C          11.6129    5.1793    4.3293 C.ar    1  UNL1        0.0000
     26 H          11.9772    5.1926    3.3101 H       1  UNL1        0.0000
     27 C          11.5235    6.3638    5.0364 C.ar    1  UNL1        0.0000
     28 H          11.8155    7.2938    4.5699 H       1  UNL1        0.0000
     29 C          11.0566    6.3575    6.3403 C.ar    1  UNL1        0.0000
     30 H          10.9828    7.2820    6.8942 H       1  UNL1        0.0000
     31 C          10.6837    5.1613    6.9294 C.ar    1  UNL1        0.0000
     32 H          10.3173    5.1500    7.9459 H       1  UNL1        0.0000
     33 C          10.7787    3.9785    6.2182 C.ar    1  UNL1        0.0000
     34 H          10.4896    3.0478    6.6853 H       1  UNL1        0.0000
@<TRIPOS>BOND
     1     6     5    1
     2     5     7   ar
     3     5     3   ar
     4     8     7    1
     5     4     3    1
     6     7     9   ar
     7     3     2   ar
     8     9    10    1
     9     9    11   ar
    10     2    11   ar
    11     2     1    1
    12    26    25    1
    13    11    12    1
    14     1    24    1
    15     1    13    1
    16    25    24   ar
    17    25    27   ar
    18    28    27    1
    19    23    22    1
    20    24    33   ar
    21    27    29   ar
    22    13    22   ar
    23    13    14   ar
    24    22    20   ar
    25    15    14    1
    26    14    16   ar
    27    33    34    1
    28    33    31   ar
    29    20    21    1
    30    20    18   ar
    31    29    30    1
    32    29    31   ar
    33    31    32    1
    34    16    18   ar
    35    16    17    1
    36    18    19    1
