@<TRIPOS>MOLECULE
1
 28 27 0 0 0
SMALL
GASTEIGER

@<TRIPOS>ATOM
      1 SI          6.5745    1.7476    8.6392 Si      1  UNL1        0.0000
      2 C           7.2856    2.2762   10.3655 C.3     1  UNL1        0.0000
      3 C           6.4892    1.6555   11.5138 C.3     1  UNL1        0.0000
      4 C           8.7579    1.8855   10.5149 C.3     1  UNL1        0.0000
      5 C           7.1744    3.8000   10.4694 C.3     1  UNL1        0.0000
      6 C           6.1919   -0.1257    8.3163 C.3     1  UNL1        0.0000
      7 C           7.3437   -1.0272    8.7575 C.3     1  UNL1        0.0000
      8 C           4.9133   -0.5495    9.0411 C.3     1  UNL1        0.0000
      9 C           5.9723   -0.3099    6.8113 C.3     1  UNL1        0.0000
     10 H           5.2397    2.4099    8.5578 H       1  UNL1        0.0000
     11 H           6.8386    2.0432   12.4707 H       1  UNL1        0.0000
     12 H           6.6062    0.5747   11.5303 H       1  UNL1        0.0000
     13 H           5.4306    1.8879   11.4212 H       1  UNL1        0.0000
     14 H           9.3792    2.3667    9.7563 H       1  UNL1        0.0000
     15 H           8.8922    0.8097   10.4335 H       1  UNL1        0.0000
     16 H           9.1281    2.1947   11.4929 H       1  UNL1        0.0000
     17 H           7.5654    4.1407   11.4278 H       1  UNL1        0.0000
     18 H           6.1369    4.1185   10.3973 H       1  UNL1        0.0000
     19 H           7.7408    4.2994    9.6802 H       1  UNL1        0.0000
     20 H           7.1468   -2.0596    8.4679 H       1  UNL1        0.0000
     21 H           7.4647   -1.0053    9.8384 H       1  UNL1        0.0000
     22 H           8.2797   -0.7188    8.2949 H       1  UNL1        0.0000
     23 H           4.0690    0.0555    8.7191 H       1  UNL1        0.0000
     24 H           5.0155   -0.4461   10.1176 H       1  UNL1        0.0000
     25 H           4.6856   -1.5927    8.8232 H       1  UNL1        0.0000
     26 H           6.8902   -0.1252    6.2506 H       1  UNL1        0.0000
     27 H           5.6504   -1.3302    6.6037 H       1  UNL1        0.0000
     28 H           5.2022    0.3678    6.4463 H       1  UNL1        0.0000
@<TRIPOS>BOND
     1    26     9    1
     2    28     9    1
     3    27     9    1
     4     9     6    1
     5    22     7    1
     6     6     1    1
     7     6     7    1
     8     6     8    1
     9    20     7    1
    10    10     1    1
    11     1     2    1
    12    23     8    1
    13     7    21    1
    14    25     8    1
    15     8    24    1
    16    19     5    1
    17    14     4    1
    18     2     5    1
    19     2     4    1
    20     2     3    1
    21    18     5    1
    22    15     4    1
    23     5    17    1
    24     4    16    1
    25    13     3    1
    26     3    12    1
    27     3    11    1
