@<TRIPOS>MOLECULE
1
 28 27 0 0 0
SMALL
GASTEIGER

@<TRIPOS>ATOM
      1 SI         10.5852   13.0179   13.3288 Si      1  UNL1        0.0000
      2 C           8.9650   13.5975   12.4411 C.3     1  UNL1        0.0000
      3 C           8.7193   15.0990   12.5929 C.3     1  UNL1        0.0000
      4 C           7.7440   12.8408   12.9698 C.3     1  UNL1        0.0000
      5 C           9.1241   13.2831   10.9527 C.3     1  UNL1        0.0000
      6 C          11.0030   13.7894   15.0643 C.3     1  UNL1        0.0000
      7 C           9.8243   13.6790   16.0298 C.3     1  UNL1        0.0000
      8 C          11.4118   15.2579   14.9323 C.3     1  UNL1        0.0000
      9 C          12.1891   13.0251   15.6609 C.3     1  UNL1        0.0000
     10 H          11.7113   13.5025   12.4733 H       1  UNL1        0.0000
     11 H           7.8627   15.4017   11.9905 H       1  UNL1        0.0000
     12 H           9.5828   15.6703   12.2594 H       1  UNL1        0.0000
     13 H           8.5059   15.3600   13.6266 H       1  UNL1        0.0000
     14 H           7.6275   12.9715   14.0433 H       1  UNL1        0.0000
     15 H           7.8212   11.7731   12.7604 H       1  UNL1        0.0000
     16 H           6.8393   13.2118   12.4877 H       1  UNL1        0.0000
     17 H           8.2093   13.5304   10.4151 H       1  UNL1        0.0000
     18 H           9.3367   12.2266   10.7966 H       1  UNL1        0.0000
     19 H           9.9364   13.8617   10.5190 H       1  UNL1        0.0000
     20 H          10.1033   14.0548   17.0145 H       1  UNL1        0.0000
     21 H           9.5080   12.6429   16.1391 H       1  UNL1        0.0000
     22 H           8.9776   14.2650   15.6803 H       1  UNL1        0.0000
     23 H          11.6919   15.6600   15.9059 H       1  UNL1        0.0000
     24 H          10.5979   15.8614   14.5433 H       1  UNL1        0.0000
     25 H          12.2644   15.3631   14.2654 H       1  UNL1        0.0000
     26 H          12.5167   13.5031   16.5842 H       1  UNL1        0.0000
     27 H          13.0327   13.0172   14.9716 H       1  UNL1        0.0000
     28 H          11.9165   11.9951   15.8964 H       1  UNL1        0.0000
@<TRIPOS>BOND
     1    17     5    1
     2    19     5    1
     3    18     5    1
     4     5     2    1
     5    11     3    1
     6    12     3    1
     7     2     3    1
     8     2     4    1
     9     2     1    1
    10    10     1    1
    11    16     4    1
    12     3    13    1
    13    15     4    1
    14     4    14    1
    15     1     6    1
    16    25     8    1
    17    24     8    1
    18     8     6    1
    19     8    23    1
    20    27     9    1
    21     6     9    1
    22     6     7    1
    23     9    28    1
    24     9    26    1
    25    22     7    1
    26     7    21    1
    27     7    20    1
