@<TRIPOS>MOLECULE
1
 42 44 0 0 0
SMALL
GASTEIGER

@<TRIPOS>ATOM
      1 SI         17.9723    0.9866   12.1159 Si      1  UNL1        0.0000
      2 N          19.0853    1.6888   10.7436 N.pl3   1  UNL1        0.0000
      3 N          22.1380    3.4943    8.5686 N.pl3   1  UNL1        0.0000
      4 C          18.0804   -0.8764   11.6377 C.ar    1  UNL1        0.0000
      5 C          18.9531   -1.7054   12.3393 C.ar    1  UNL1        0.0000
      6 C          19.0236   -3.0606   12.0715 C.ar    1  UNL1        0.0000
      7 C          18.2147   -3.6192   11.0949 C.ar    1  UNL1        0.0000
      8 C          17.3404   -2.8116   10.3885 C.ar    1  UNL1        0.0000
      9 C          17.2759   -1.4553   10.6599 C.ar    1  UNL1        0.0000
     10 C          16.2542    1.4404   11.3995 C.ar    1  UNL1        0.0000
     11 C          15.1555    1.1871   12.2177 C.ar    1  UNL1        0.0000
     12 C          13.8683    1.4819   11.8089 C.ar    1  UNL1        0.0000
     13 C          13.6496    2.0429   10.5608 C.ar    1  UNL1        0.0000
     14 C          14.7265    2.2913    9.7279 C.ar    1  UNL1        0.0000
     15 C          16.0124    1.9903   10.1447 C.ar    1  UNL1        0.0000
     16 C          19.0842    3.0032   10.5087 C.3     1  UNL1        0.0000
     17 C          20.0504    3.6412    9.7838 C.2     1  UNL1        0.0000
     18 C          21.1376    2.9071    9.2564 C.2     1  UNL1        0.0000
     19 C          21.1036    1.5180    9.4983 C.2     1  UNL1        0.0000
     20 C          20.0869    0.9713   10.2332 C.2     1  UNL1        0.0000
     21 C          22.1197    4.9147    8.3110 C.3     1  UNL1        0.0000
     22 C          23.3002    2.7294    8.1794 C.3     1  UNL1        0.0000
     23 H          19.5716   -1.2747   13.1152 H       1  UNL1        0.0000
     24 H          19.7057   -3.6858   12.6299 H       1  UNL1        0.0000
     25 H          18.2614   -4.6794   10.8901 H       1  UNL1        0.0000
     26 H          16.7018   -3.2410    9.6289 H       1  UNL1        0.0000
     27 H          16.5812   -0.8375   10.1084 H       1  UNL1        0.0000
     28 H          15.3351    0.7459   13.1860 H       1  UNL1        0.0000
     29 H          13.0311    1.2764   12.4614 H       1  UNL1        0.0000
     30 H          12.6461    2.2791   10.2370 H       1  UNL1        0.0000
     31 H          14.5638    2.7182    8.7476 H       1  UNL1        0.0000
     32 H          16.8384    2.1788    9.4722 H       1  UNL1        0.0000
     33 H          18.2605    3.5478   10.9418 H       1  UNL1        0.0000
     34 H          19.9791    4.7067    9.6480 H       1  UNL1        0.0000
     35 H          21.8760    0.8675    9.1286 H       1  UNL1        0.0000
     36 H          20.0543   -0.0858   10.4423 H       1  UNL1        0.0000
     37 H          22.2144    5.4903    9.2368 H       1  UNL1        0.0000
     38 H          21.1931    5.2034    7.8099 H       1  UNL1        0.0000
     39 H          22.9490    5.1755    7.6589 H       1  UNL1        0.0000
     40 H          23.7275    2.2101    9.0401 H       1  UNL1        0.0000
     41 H          23.0470    1.9922    7.4124 H       1  UNL1        0.0000
     42 H          24.0562    3.3973    7.7753 H       1  UNL1        0.0000
@<TRIPOS>BOND
     1    41    22    1
     2    39    21    1
     3    42    22    1
     4    38    21    1
     5    22     3    1
     6    22    40    1
     7    21     3    1
     8    21    37    1
     9     3    18    1
    10    31    14    1
    11    35    19    1
    12    18    19    1
    13    18    17    2
    14    32    15    1
    15    19    20    2
    16    26     8    1
    17    34    17    1
    18    14    15   ar
    19    14    13   ar
    20    17    16    1
    21    27     9    1
    22    15    10   ar
    23    20    36    1
    24    20     2    1
    25    30    13    1
    26     8     9   ar
    27     8     7   ar
    28    16     2    1
    29    16    33    1
    30    13    12   ar
    31     9     4   ar
    32     2     1    1
    33    25     7    1
    34     7     6   ar
    35    10     1    1
    36    10    11   ar
    37     4     1    1
    38     4     5   ar
    39    12    11   ar
    40    12    29    1
    41     6     5   ar
    42     6    24    1
    43    11    28    1
    44     5    23    1
