@<TRIPOS>MOLECULE
1
 14 14 0 0 0
SMALL
GASTEIGER

@<TRIPOS>ATOM
      1 SI          5.4340    1.9559    4.5965 Si      1  UNL1        0.0000
      2 H           4.0133    1.4999    4.4836 H       1  UNL1        0.0000
      3 H           5.8877    1.1164    5.7253 H       1  UNL1        0.0000
      4 C           6.2621    1.2356    3.0639 C.ar    1  UNL1        0.0000
      5 C           5.5375    0.8750    1.9376 C.ar    1  UNL1        0.0000
      6 H           4.4569    0.9016    1.9763 H       1  UNL1        0.0000
      7 C           7.6479    1.1838    2.9900 C.ar    1  UNL1        0.0000
      8 H           8.2217    1.4688    3.8605 H       1  UNL1        0.0000
      9 C           6.1698    0.4859    0.7697 C.ar    1  UNL1        0.0000
     10 H           5.5853    0.2164   -0.0996 H       1  UNL1        0.0000
     11 C           8.2925    0.7953    1.8319 C.ar    1  UNL1        0.0000
     12 H           9.3733    0.7660    1.7933 H       1  UNL1        0.0000
     13 C           7.5518    0.4522    0.7118 C.ar    1  UNL1        0.0000
     14 H           8.0512    0.1584   -0.2010 H       1  UNL1        0.0000
@<TRIPOS>BOND
     1    14    13    1
     2    10     9    1
     3    13     9   ar
     4    13    11   ar
     5     9     5   ar
     6    12    11    1
     7    11     7   ar
     8     5     6    1
     9     5     4   ar
    10     7     4   ar
    11     7     8    1
    12     4     1    1
    13     2     1    1
    14     1     3    1
