@<TRIPOS>MOLECULE
1
 52 54 0 0 0
SMALL
GASTEIGER

@<TRIPOS>ATOM
      1 SI          7.3338    7.2399    4.5852 Si      1  UNL1        0.0000
      2 C           3.5491    7.4497    5.9193 C.ar    1  UNL1        0.0000
      3 C           5.0808    8.5434    7.4302 C.ar    1  UNL1        0.0000
      4 C           6.8072    9.8775    3.4561 C.ar    1  UNL1        0.0000
      5 C           9.2871   10.0661    3.5217 C.ar    1  UNL1        0.0000
      6 C           4.8549   11.2316    3.8870 C.ar    1  UNL1        0.0000
      7 H           4.2739   12.1251    3.7081 H       1  UNL1        0.0000
      8 C           6.3560    8.8684    4.3221 C.ar    1  UNL1        0.0000
      9 C           4.6378    8.2949    6.1278 C.ar    1  UNL1        0.0000
     10 C           5.1740    9.1280    5.0239 C.ar    1  UNL1        0.0000
     11 C          10.5137   10.1066    2.8803 C.ar    1  UNL1        0.0000
     12 H          11.4101   10.2507    3.4678 H       1  UNL1        0.0000
     13 C           4.4305   10.2840    4.7951 C.ar    1  UNL1        0.0000
     14 H           3.5191   10.4393    5.3575 H       1  UNL1        0.0000
     15 C           9.4556    9.8584    0.7657 C.ar    1  UNL1        0.0000
     16 H           9.5095    9.8024   -0.3132 H       1  UNL1        0.0000
     17 C          10.6205    9.9816    1.5019 C.ar    1  UNL1        0.0000
     18 C           2.7384    6.3637    9.4652 C.3     1  UNL1        0.0000
     19 H           1.7931    5.9107    9.1758 H       1  UNL1        0.0000
     20 H           2.5552    7.0717   10.2714 H       1  UNL1        0.0000
     21 H           3.3900    5.5799    9.8537 H       1  UNL1        0.0000
     22 C           8.2089    9.8167    1.3785 C.ar    1  UNL1        0.0000
     23 C           3.3876    7.0459    8.2976 C.ar    1  UNL1        0.0000
     24 C           6.0593   11.0334    3.2433 C.ar    1  UNL1        0.0000
     25 H           6.4468   11.7902    2.5755 H       1  UNL1        0.0000
     26 C           9.2238   10.2728    5.0043 C.3     1  UNL1        0.0000
     27 H           9.1634    9.3130    5.5140 H       1  UNL1        0.0000
     28 H           8.3422   10.8493    5.2747 H       1  UNL1        0.0000
     29 H          10.1119   10.7961    5.3517 H       1  UNL1        0.0000
     30 C           6.9910    9.7583    0.4985 C.3     1  UNL1        0.0000
     31 H           6.8438   10.7256    0.0159 H       1  UNL1        0.0000
     32 H           6.0950    9.5261    1.0655 H       1  UNL1        0.0000
     33 H           7.1201    9.0170   -0.2889 H       1  UNL1        0.0000
     34 C           2.9427    6.8302    7.0024 C.ar    1  UNL1        0.0000
     35 H           2.0953    6.1800    6.8315 H       1  UNL1        0.0000
     36 C           8.1224    9.8658    2.7712 C.ar    1  UNL1        0.0000
     37 C           4.4595    7.9066    8.4930 C.ar    1  UNL1        0.0000
     38 H           4.8036    8.0982    9.5002 H       1  UNL1        0.0000
     39 C           3.0540    7.2080    4.5287 C.3     1  UNL1        0.0000
     40 H           2.8239    8.1459    4.0256 H       1  UNL1        0.0000
     41 H           2.1658    6.5793    4.5324 H       1  UNL1        0.0000
     42 H           3.8471    6.7142    3.9697 H       1  UNL1        0.0000
     43 C           6.1833    9.5272    7.6802 C.3     1  UNL1        0.0000
     44 H           7.0833    9.2348    7.1438 H       1  UNL1        0.0000
     45 H           6.4072    9.5944    8.7423 H       1  UNL1        0.0000
     46 H           5.8946   10.5147    7.3208 H       1  UNL1        0.0000
     47 C          11.9628    9.9898    0.8338 C.3     1  UNL1        0.0000
     48 H          12.6382   10.6835    1.3301 H       1  UNL1        0.0000
     49 H          11.8752   10.2708   -0.2132 H       1  UNL1        0.0000
     50 H          12.4089    8.9957    0.8823 H       1  UNL1        0.0000
     51 H           7.7067    7.3673    6.0197 H       1  UNL1        0.0000
     52 H           8.6221    7.5448    3.9364 H       1  UNL1        0.0000
@<TRIPOS>BOND
     1    16    15    1
     2    33    30    1
     3    49    47    1
     4    31    30    1
     5    30    32    1
     6    30    22    1
     7    15    22   ar
     8    15    17   ar
     9    47    50    1
    10    47    48    1
    11    47    17    1
    12    22    36   ar
    13    17    11   ar
    14    25    24    1
    15    36     4    1
    16    36     5   ar
    17    11    12    1
    18    11     5   ar
    19    24     4   ar
    20    24     6   ar
    21     4     8   ar
    22     5    26    1
    23     7     6    1
    24     6    13   ar
    25    52     1    1
    26    42    39    1
    27    40    39    1
    28     8     1    1
    29     8    10   ar
    30    39    41    1
    31    39     2    1
    32     1    51    1
    33    13    10   ar
    34    13    14    1
    35    26    28    1
    36    26    29    1
    37    26    27    1
    38    10     9    1
    39     2     9   ar
    40     2    34   ar
    41     9     3   ar
    42    35    34    1
    43    34    23   ar
    44    44    43    1
    45    46    43    1
    46     3    43    1
    47     3    37   ar
    48    43    45    1
    49    23    37   ar
    50    23    18    1
    51    37    38    1
    52    19    18    1
    53    18    21    1
    54    18    20    1
