@<TRIPOS>MOLECULE
1
 20 20 0 0 0
SMALL
GASTEIGER

@<TRIPOS>ATOM
      1 SI          2.0421   -0.1782    5.1795 Si      1  UNL1        0.0000
      2 O           0.7366    0.1710    6.1798 O.3     1  UNL1        0.0000
      3 N           1.3203   -1.3669    7.7506 N.ar    1  UNL1        0.0000
      4 C           3.6964   -0.1958    6.1472 C.3     1  UNL1        0.0000
      5 C           1.7736   -1.9888    4.6233 C.3     1  UNL1        0.0000
      6 C           0.4369   -0.4984    7.2827 C.ar    1  UNL1        0.0000
      7 C          -0.7882   -0.2634    7.9213 C.ar    1  UNL1        0.0000
      8 C          -1.0737   -0.9611    9.0755 C.ar    1  UNL1        0.0000
      9 C          -0.1425   -1.8690    9.5663 C.ar    1  UNL1        0.0000
     10 C           1.0339   -2.0303    8.8591 C.ar    1  UNL1        0.0000
     11 H           3.5622    0.0609    7.1904 H       1  UNL1        0.0000
     12 H           4.4057    0.4912    5.7025 H       1  UNL1        0.0000
     13 H           4.1361   -1.1857    6.1146 H       1  UNL1        0.0000
     14 H           0.8559   -2.1045    4.0582 H       1  UNL1        0.0000
     15 H           2.5915   -2.3414    4.0093 H       1  UNL1        0.0000
     16 H           1.7080   -2.6303    5.4965 H       1  UNL1        0.0000
     17 H          -1.4811    0.4435    7.4951 H       1  UNL1        0.0000
     18 H          -2.0112   -0.8043    9.5897 H       1  UNL1        0.0000
     19 H          -0.3309   -2.4325   10.4660 H       1  UNL1        0.0000
     20 H           1.7968   -2.7249    9.1868 H       1  UNL1        0.0000
@<TRIPOS>BOND
     1    15     5    1
     2    14     5    1
     3     5     1    1
     4     5    16    1
     5     1     4    1
     6     1     2    1
     7    12     4    1
     8    13     4    1
     9     4    11    1
    10     2     6    1
    11     6     3   ar
    12     6     7   ar
    13    17     7    1
    14     3    10   ar
    15     7     8   ar
    16    10    20    1
    17    10     9   ar
    18     8     9   ar
    19     8    18    1
    20     9    19    1
