@<TRIPOS>MOLECULE
1
 20 20 0 0 0
SMALL
GASTEIGER

@<TRIPOS>ATOM
      1 SI          2.2702    0.8209    1.7604 Si      1  UNL1        0.0000
      2 O           3.7344    1.4433    1.2057 O.3     1  UNL1        0.0000
      3 N           4.9549    0.1984    2.6622 N.ar    1  UNL1        0.0000
      4 C           1.1098    1.5804    0.4471 C.3     1  UNL1        0.0000
      5 C           2.3152   -1.0515    1.3838 C.3     1  UNL1        0.0000
      6 C           4.9017    1.1567    1.7492 C.ar    1  UNL1        0.0000
      7 C           6.0389    1.8791    1.3596 C.ar    1  UNL1        0.0000
      8 C           7.2433    1.5886    1.9634 C.ar    1  UNL1        0.0000
      9 C           7.2901    0.5958    2.9360 C.ar    1  UNL1        0.0000
     10 C           6.1164   -0.0682    3.2373 C.ar    1  UNL1        0.0000
     11 H           1.3070    2.6284    0.2665 H       1  UNL1        0.0000
     12 H           1.2073    1.0651   -0.5024 H       1  UNL1        0.0000
     13 H           0.0828    1.4776    0.7716 H       1  UNL1        0.0000
     14 H           2.4910   -1.2277    0.3266 H       1  UNL1        0.0000
     15 H           1.3812   -1.5296    1.6483 H       1  UNL1        0.0000
     16 H           3.1125   -1.5319    1.9357 H       1  UNL1        0.0000
     17 H           5.9481    2.6404    0.6010 H       1  UNL1        0.0000
     18 H           8.1371    2.1286    1.6857 H       1  UNL1        0.0000
     19 H           8.2129    0.3451    3.4340 H       1  UNL1        0.0000
     20 H           6.0874   -0.8584    3.9758 H       1  UNL1        0.0000
@<TRIPOS>BOND
     1    12     4    1
     2    11     4    1
     3    14     5    1
     4     4    13    1
     5     4     1    1
     6    17     7    1
     7     2     6    1
     8     2     1    1
     9     7     6   ar
    10     7     8   ar
    11     5    15    1
    12     5     1    1
    13     5    16    1
    14    18     8    1
    15     6     3   ar
    16     8     9   ar
    17     3    10   ar
    18     9    10   ar
    19     9    19    1
    20    10    20    1
