@<TRIPOS>MOLECULE
1
 45 46 0 0 0
SMALL
GASTEIGER

@<TRIPOS>ATOM
      1 SI          1.3159    0.6624    3.7764 Si      1  UNL1        0.0000
      2 N           2.6083    0.7238    2.3894 N.3     1  UNL1        0.0000
      3 N           1.0674    2.1500    2.6085 N.3     1  UNL1        0.0000
      4 C           2.0938    1.8107    1.8671 C.3     1  UNL1        0.0000
      5 C           2.1287    2.1628   -0.5969 C.ar    1  UNL1        0.0000
      6 H           1.4029    1.3687   -0.6953 H       1  UNL1        0.0000
      7 C           4.9882    0.6295    1.7535 C.3     1  UNL1        0.0000
      8 H           4.9364    1.3581    0.9478 H       1  UNL1        0.0000
      9 H           5.7925   -0.0686    1.5330 H       1  UNL1        0.0000
     10 H           5.2265    1.1561    2.6741 H       1  UNL1        0.0000
     11 C           3.6590   -0.1280    1.8907 C.3     1  UNL1        0.0000
     12 C           2.5844    2.5228    0.6686 C.ar    1  UNL1        0.0000
     13 C           0.1352   -0.4122    2.6489 C.3     1  UNL1        0.0000
     14 H          -0.8908   -0.3774    2.9983 H       1  UNL1        0.0000
     15 H           0.4382   -1.4532    2.6297 H       1  UNL1        0.0000
     16 H           0.1488   -0.0439    1.6268 H       1  UNL1        0.0000
     17 C           3.5025    3.8563   -1.5974 C.ar    1  UNL1        0.0000
     18 H           3.8586    4.3736   -2.4759 H       1  UNL1        0.0000
     19 C           3.2911   -0.7342    0.5260 C.3     1  UNL1        0.0000
     20 H           3.3450    0.0106   -0.2635 H       1  UNL1        0.0000
     21 H           2.2841   -1.1422    0.5597 H       1  UNL1        0.0000
     22 H           3.9842   -1.5374    0.2860 H       1  UNL1        0.0000
     23 C           0.1205    3.2262    2.4476 C.3     1  UNL1        0.0000
     24 C          -0.3839    3.3627    1.0030 C.3     1  UNL1        0.0000
     25 H          -0.6658    2.3894    0.6083 H       1  UNL1        0.0000
     26 H           0.3692    3.8020    0.3547 H       1  UNL1        0.0000
     27 H          -1.2613    4.0058    0.9898 H       1  UNL1        0.0000
     28 C           3.7978   -1.2718    2.8966 C.3     1  UNL1        0.0000
     29 H           3.8430   -0.8744    3.9061 H       1  UNL1        0.0000
     30 H           4.6893   -1.8600    2.6922 H       1  UNL1        0.0000
     31 H           2.9263   -1.9176    2.8335 H       1  UNL1        0.0000
     32 C           2.5864    2.8248   -1.7214 C.ar    1  UNL1        0.0000
     33 H           2.2251    2.5356   -2.6975 H       1  UNL1        0.0000
     34 C          -1.0731    2.8790    3.3389 C.3     1  UNL1        0.0000
     35 H          -1.6249    2.0471    2.9098 H       1  UNL1        0.0000
     36 H          -1.7430    3.7304    3.4356 H       1  UNL1        0.0000
     37 H          -0.7119    2.5811    4.3194 H       1  UNL1        0.0000
     38 C           3.5042    3.5596    0.7846 C.ar    1  UNL1        0.0000
     39 H           3.8722    3.8436    1.7602 H       1  UNL1        0.0000
     40 C           3.9583    4.2222   -0.3426 C.ar    1  UNL1        0.0000
     41 H           4.6722    5.0263   -0.2386 H       1  UNL1        0.0000
     42 C           0.7363    4.5580    2.8946 C.3     1  UNL1        0.0000
     43 H           1.5908    4.8118    2.2710 H       1  UNL1        0.0000
     44 H           1.0667    4.4793    3.9256 H       1  UNL1        0.0000
     45 H           0.0025    5.3573    2.8165 H       1  UNL1        0.0000
@<TRIPOS>BOND
     1    33    32    1
     2    18    17    1
     3    32    17   ar
     4    32     5   ar
     5    17    40   ar
     6     6     5    1
     7     5    12   ar
     8    40    41    1
     9    40    38   ar
    10    20    19    1
    11    22    19    1
    12    26    24    1
    13    19    21    1
    14    19    11    1
    15    25    24    1
    16    12    38   ar
    17    12     4    1
    18    38    39    1
    19     8     7    1
    20    27    24    1
    21    24    23    1
    22     9     7    1
    23    16    13    1
    24     7    11    1
    25     7    10    1
    26     4     2    1
    27     4     3    1
    28    11     2    1
    29    11    28    1
    30    43    42    1
    31     2     1    1
    32    23     3    1
    33    23    42    1
    34    23    34    1
    35     3     1    1
    36    15    13    1
    37    13    14    1
    38    13     1    1
    39    30    28    1
    40    45    42    1
    41    31    28    1
    42    42    44    1
    43    28    29    1
    44    35    34    1
    45    34    36    1
    46    34    37    1
