@<TRIPOS>MOLECULE
2
 42 43 0 0 0
SMALL
GASTEIGER

@<TRIPOS>ATOM
      1 CL          6.4986    2.9407    2.6762 Cl      1  UNL1        0.0000
      2 SI          7.4409    3.9832    4.3098 Si      1  UNL1        0.0000
      3 N           7.2157    5.6524    3.4269 N.3     1  UNL1        0.0000
      4 C           8.3285    5.5248    2.7436 C.3     1  UNL1        0.0000
      5 N           8.8969    4.4048    3.1166 N.3     1  UNL1        0.0000
      6 C           8.8533    6.4836    1.7532 C.ar    1  UNL1        0.0000
      7 C           9.7336    7.4866    2.1484 C.ar    1  UNL1        0.0000
      8 H          10.0305    7.5575    3.1854 H       1  UNL1        0.0000
      9 C          10.2234    8.3872    1.2198 C.ar    1  UNL1        0.0000
     10 H          10.9057    9.1631    1.5342 H       1  UNL1        0.0000
     11 C           9.8411    8.2939   -0.1085 C.ar    1  UNL1        0.0000
     12 H          10.2248    8.9975   -0.8321 H       1  UNL1        0.0000
     13 C           8.9662    7.2968   -0.5062 C.ar    1  UNL1        0.0000
     14 H           8.6659    7.2208   -1.5409 H       1  UNL1        0.0000
     15 C           8.4718    6.3940    0.4188 C.ar    1  UNL1        0.0000
     16 H           7.7889    5.6155    0.1113 H       1  UNL1        0.0000
     17 C           6.7633    8.0758    3.5908 C.3     1  UNL1        0.0000
     18 H           7.3413    8.0981    4.5125 H       1  UNL1        0.0000
     19 H           5.9468    8.7887    3.6789 H       1  UNL1        0.0000
     20 H           7.4047    8.3909    2.7718 H       1  UNL1        0.0000
     21 C           5.4918    6.6225    1.9824 C.3     1  UNL1        0.0000
     22 H           6.1332    7.0147    1.1973 H       1  UNL1        0.0000
     23 H           4.5830    7.2189    2.0141 H       1  UNL1        0.0000
     24 H           5.2282    5.5950    1.7425 H       1  UNL1        0.0000
     25 C           5.1809    6.3389    4.4386 C.3     1  UNL1        0.0000
     26 H           4.7242    5.3750    4.2308 H       1  UNL1        0.0000
     27 H           4.4062    7.1008    4.4881 H       1  UNL1        0.0000
     28 H           5.6916    6.2703    5.3960 H       1  UNL1        0.0000
     29 C           6.1946    6.6714    3.3471 C.3     1  UNL1        0.0000
     30 C           9.6565    3.2604    1.0830 C.3     1  UNL1        0.0000
     31 H           8.6814    2.7807    1.0700 H       1  UNL1        0.0000
     32 H          10.3998    2.5522    0.7243 H       1  UNL1        0.0000
     33 H           9.6404    4.1124    0.4081 H       1  UNL1        0.0000
     34 C          11.2942    4.5351    2.4832 C.3     1  UNL1        0.0000
     35 H          11.1918    5.3956    1.8273 H       1  UNL1        0.0000
     36 H          12.1103    3.9199    2.1110 H       1  UNL1        0.0000
     37 H          11.5533    4.8836    3.4796 H       1  UNL1        0.0000
     38 C          10.2340    2.4606    3.3755 C.3     1  UNL1        0.0000
     39 H          10.4040    2.7717    4.4007 H       1  UNL1        0.0000
     40 H          11.0910    1.8942    3.0191 H       1  UNL1        0.0000
     41 H           9.3515    1.8269    3.3487 H       1  UNL1        0.0000
     42 C          10.0068    3.6987    2.5127 C.3     1  UNL1        0.0000
@<TRIPOS>BOND
     1    14    13    1
     2    12    11    1
     3    13    11   ar
     4    13    15   ar
     5    11     9   ar
     6    16    15    1
     7    33    30    1
     8    15     6   ar
     9    32    30    1
    10    31    30    1
    11    30    42    1
    12    22    21    1
    13     9    10    1
    14     9     7   ar
    15    24    21    1
    16     6     7   ar
    17     6     4    1
    18    35    34    1
    19    21    23    1
    20    21    29    1
    21    36    34    1
    22     7     8    1
    23    34    42    1
    24    34    37    1
    25    42     5    1
    26    42    38    1
    27     1     2    1
    28     4     5    1
    29     4     3    1
    30    20    17    1
    31    40    38    1
    32     5     2    1
    33    29     3    1
    34    29    17    1
    35    29    25    1
    36    41    38    1
    37    38    39    1
    38     3     2    1
    39    17    19    1
    40    17    18    1
    41    26    25    1
    42    25    27    1
    43    25    28    1
