@<TRIPOS>MOLECULE
1
 24 23 0 0 0
SMALL
GASTEIGER

@<TRIPOS>ATOM
      1 SI          6.2407    1.4301    6.2727 Si      1  UNL1        0.0000
      2 C           1.9209    0.0993    9.2583 C.2     1  UNL1        0.0000
      3 H           1.2472    0.2546    8.4354 H       1  UNL1        0.0000
      4 H           1.4789   -0.3071   10.1538 H       1  UNL1        0.0000
      5 C           3.2266    0.3574    9.1857 C.2     1  UNL1        0.0000
      6 C           3.8574    0.9052    7.9730 C.2     1  UNL1        0.0000
      7 C           5.1814    0.8520    7.7749 C.2     1  UNL1        0.0000
      8 H           5.7652    0.3733    8.5519 H       1  UNL1        0.0000
      9 C           4.1016    0.0714   10.3766 C.3     1  UNL1        0.0000
     10 H           4.7322    0.9280   10.6093 H       1  UNL1        0.0000
     11 H           4.7478   -0.7831   10.1785 H       1  UNL1        0.0000
     12 H           3.4919   -0.1608   11.2468 H       1  UNL1        0.0000
     13 C           2.9374    1.5150    6.9565 C.3     1  UNL1        0.0000
     14 H           2.1835    2.1331    7.4414 H       1  UNL1        0.0000
     15 H           2.4294    0.7346    6.3918 H       1  UNL1        0.0000
     16 H           3.5062    2.1261    6.2657 H       1  UNL1        0.0000
     17 C           5.4719    0.4149    4.8111 C.3     1  UNL1        0.0000
     18 H           6.1830    0.3001    4.0006 H       1  UNL1        0.0000
     19 H           4.5880    0.8897    4.4055 H       1  UNL1        0.0000
     20 H           5.1923   -0.5778    5.1493 H       1  UNL1        0.0000
     21 C           7.7933    0.3086    6.6357 C.3     1  UNL1        0.0000
     22 H           7.4644   -0.6535    7.0163 H       1  UNL1        0.0000
     23 H           8.4708    0.7348    7.3686 H       1  UNL1        0.0000
     24 H           8.3586    0.1157    5.7316 H       1  UNL1        0.0000
@<TRIPOS>BOND
     1    18    17    1
     2    19    17    1
     3    17    20    1
     4    17     1    1
     5    24    21    1
     6    16    13    1
     7     1    21    1
     8     1     7    1
     9    15    13    1
    10    21    22    1
    11    21    23    1
    12    13    14    1
    13    13     6    1
    14     7     6    2
    15     7     8    1
    16     6     5    1
    17     3     2    1
    18     5     2    2
    19     5     9    1
    20     2     4    1
    21    11     9    1
    22     9    10    1
    23     9    12    1
