@<TRIPOS>MOLECULE
1
 20 20 0 0 0
SMALL
GASTEIGER

@<TRIPOS>ATOM
      1 SI          3.7632    3.6656   15.9605 Si      1  UNL1        0.0000
      2 O           3.0841    2.1439   15.6431 O.3     1  UNL1        0.0000
      3 N           2.2759    2.8920   13.6641 N.ar    1  UNL1        0.0000
      4 C           2.2773    4.8121   16.3668 C.3     1  UNL1        0.0000
      5 H           1.6628    4.9707   15.4878 H       1  UNL1        0.0000
      6 H           2.6189    5.7810   16.7115 H       1  UNL1        0.0000
      7 H           1.6483    4.3828   17.1414 H       1  UNL1        0.0000
      8 C           4.6306    3.2538   17.6207 C.3     1  UNL1        0.0000
      9 H           3.9047    3.1286   18.4169 H       1  UNL1        0.0000
     10 H           5.2925    4.0645   17.9003 H       1  UNL1        0.0000
     11 H           5.2137    2.3432   17.5639 H       1  UNL1        0.0000
     12 C           2.3747    1.9167   14.5564 C.ar    1  UNL1        0.0000
     13 C           1.7634    0.6702   14.3667 C.ar    1  UNL1        0.0000
     14 H           1.8712   -0.0922   15.1218 H       1  UNL1        0.0000
     15 C           1.0332    0.4650   13.2159 C.ar    1  UNL1        0.0000
     16 H           0.5463   -0.4838   13.0413 H       1  UNL1        0.0000
     17 C           0.9283    1.4934   12.2855 C.ar    1  UNL1        0.0000
     18 H           0.3620    1.3683   11.3767 H       1  UNL1        0.0000
     19 C           1.5704    2.6845   12.5643 C.ar    1  UNL1        0.0000
     20 H           1.5262    3.5255   11.8844 H       1  UNL1        0.0000
@<TRIPOS>BOND
     1    18    17    1
     2    20    19    1
     3    17    19   ar
     4    17    15   ar
     5    19     3   ar
     6    16    15    1
     7    15    13   ar
     8     3    12   ar
     9    13    12   ar
    10    13    14    1
    11    12     2    1
    12     5     4    1
    13     2     1    1
    14     1     4    1
    15     1     8    1
    16     4     6    1
    17     4     7    1
    18    11     8    1
    19     8    10    1
    20     8     9    1
