@<TRIPOS>MOLECULE
1
 25 24 0 0 0
SMALL
GASTEIGER

@<TRIPOS>ATOM
      1 SI          9.1650   12.4978    6.1507 Si      1  UNL1        0.0000
      2 SI         10.8243    9.7029    6.9116 Si      1  UNL1        0.0000
      3 C           8.9372   14.0274    7.3099 C.3     1  UNL1        0.0000
      4 C           7.6416   11.4037    6.5952 C.3     1  UNL1        0.0000
      5 C          10.7235   11.6055    6.8866 C.3     1  UNL1        0.0000
      6 C          10.0158    8.8215    5.4181 C.3     1  UNL1        0.0000
      7 C          10.0219    9.0339    8.5105 C.3     1  UNL1        0.0000
      8 C          12.6760    9.2053    6.9212 C.3     1  UNL1        0.0000
      9 H           8.8909   13.7115    8.3477 H       1  UNL1        0.0000
     10 H           8.0198   14.5635    7.0878 H       1  UNL1        0.0000
     11 H           9.7602   14.7284    7.2131 H       1  UNL1        0.0000
     12 H           6.7156   11.8589    6.2568 H       1  UNL1        0.0000
     13 H           7.5734   11.2795    7.6710 H       1  UNL1        0.0000
     14 H           7.7107   10.4171    6.1516 H       1  UNL1        0.0000
     15 H          11.5946   11.9848    6.3541 H       1  UNL1        0.0000
     16 H          10.8348   11.9520    7.9134 H       1  UNL1        0.0000
     17 H           9.0859    8.3371    5.6985 H       1  UNL1        0.0000
     18 H          10.6652    8.0593    4.9973 H       1  UNL1        0.0000
     19 H           9.7859    9.5342    4.6329 H       1  UNL1        0.0000
     20 H           8.9755    9.3137    8.5708 H       1  UNL1        0.0000
     21 H          10.5173    9.4264    9.3930 H       1  UNL1        0.0000
     22 H          10.0770    7.9504    8.5593 H       1  UNL1        0.0000
     23 H          12.7994    8.1327    7.0385 H       1  UNL1        0.0000
     24 H          13.2083    9.6856    7.7363 H       1  UNL1        0.0000
     25 H          13.1696    9.4916    5.9967 H       1  UNL1        0.0000
@<TRIPOS>BOND
     1    19     6    1
     2    18     6    1
     3     6    17    1
     4     6     2    1
     5    25     8    1
     6     1     4    1
     7     1     5    1
     8     1     3    1
     9    14     4    1
    10    12     4    1
    11    15     5    1
    12     4    13    1
    13     5     2    1
    14     5    16    1
    15     2     8    1
    16     2     7    1
    17     8    23    1
    18     8    24    1
    19    10     3    1
    20    11     3    1
    21     3     9    1
    22     7    22    1
    23     7    20    1
    24     7    21    1
