@<TRIPOS>MOLECULE
2
 50 53 0 0 0
SMALL
GASTEIGER

@<TRIPOS>ATOM
      1 CL         13.0017    8.6822   11.7471 Cl      1  UNL1        0.0000
      2 SI         11.1144    9.5332   12.2024 Si      1  UNL1        0.0000
      3 C          11.4155   10.6978   13.7179 C.ar    1  UNL1        0.0000
      4 C          12.3003   10.5158   14.7819 C.ar    1  UNL1        0.0000
      5 C          12.4677   11.5068   15.7471 C.ar    1  UNL1        0.0000
      6 H          13.1689   11.3377   16.5531 H       1  UNL1        0.0000
      7 C          11.7797   12.6987   15.6593 C.ar    1  UNL1        0.0000
      8 H          11.9392   13.4793   16.3897 H       1  UNL1        0.0000
      9 C          10.8916   12.8880   14.6188 C.ar    1  UNL1        0.0000
     10 H          10.3790   13.8332   14.5208 H       1  UNL1        0.0000
     11 C          10.6790   11.8928   13.6684 C.ar    1  UNL1        0.0000
     12 C           9.7455   12.2073   12.5719 C.ar    1  UNL1        0.0000
     13 C           8.5226   12.8423   12.8063 C.ar    1  UNL1        0.0000
     14 C           7.7888   13.3324   11.7328 C.ar    1  UNL1        0.0000
     15 H           6.8449   13.8245   11.9258 H       1  UNL1        0.0000
     16 C           8.2411   13.2195   10.4289 C.ar    1  UNL1        0.0000
     17 C           9.4056   12.4990   10.2032 C.ar    1  UNL1        0.0000
     18 H           9.7563   12.3651    9.1876 H       1  UNL1        0.0000
     19 C          10.1371   11.9592   11.2489 C.ar    1  UNL1        0.0000
     20 C          11.2912   11.0591   10.9940 C.3     1  UNL1        0.0000
     21 H          12.2254   11.5601   11.2607 H       1  UNL1        0.0000
     22 H          11.3580   10.8075    9.9373 H       1  UNL1        0.0000
     23 C           7.4815   13.8369    9.2924 C.3     1  UNL1        0.0000
     24 H           6.4096   13.8070    9.4793 H       1  UNL1        0.0000
     25 H           7.6928   13.3239    8.3561 H       1  UNL1        0.0000
     26 H           7.7713   14.8819    9.1752 H       1  UNL1        0.0000
     27 C           7.9164   12.9536   14.1774 C.3     1  UNL1        0.0000
     28 H           7.9724   13.9763   14.5507 H       1  UNL1        0.0000
     29 H           8.4159   12.2974   14.8841 H       1  UNL1        0.0000
     30 H           6.8626   12.6804   14.1295 H       1  UNL1        0.0000
     31 C          13.1480    9.3129   14.9699 C.ar    1  UNL1        0.0000
     32 C          14.4316    9.2666   14.4254 C.ar    1  UNL1        0.0000
     33 C          15.2379    8.1683   14.6838 C.ar    1  UNL1        0.0000
     34 H          16.2271    8.1283   14.2491 H       1  UNL1        0.0000
     35 C          14.8123    7.1313   15.4998 C.ar    1  UNL1        0.0000
     36 C          13.5516    7.2145   16.0702 C.ar    1  UNL1        0.0000
     37 H          13.2142    6.4283   16.7332 H       1  UNL1        0.0000
     38 C          12.7164    8.2932   15.8196 C.ar    1  UNL1        0.0000
     39 C          11.3761    8.3872   16.4844 C.3     1  UNL1        0.0000
     40 H          11.1692    7.4924   17.0681 H       1  UNL1        0.0000
     41 H          10.5932    8.5177   15.7381 H       1  UNL1        0.0000
     42 H          11.3425    9.2508   17.1479 H       1  UNL1        0.0000
     43 C          15.7196    5.9684   15.7774 C.3     1  UNL1        0.0000
     44 H          16.0653    5.5224   14.8456 H       1  UNL1        0.0000
     45 H          15.2118    5.2059   16.3644 H       1  UNL1        0.0000
     46 H          16.5977    6.2986   16.3323 H       1  UNL1        0.0000
     47 C          14.9770   10.4025   13.6119 C.3     1  UNL1        0.0000
     48 H          15.6505   11.0027   14.2258 H       1  UNL1        0.0000
     49 H          14.1807   11.0470   13.2513 H       1  UNL1        0.0000
     50 H          15.5390   10.0244   12.7609 H       1  UNL1        0.0000
@<TRIPOS>BOND
     1    25    23    1
     2    26    23    1
     3    18    17    1
     4    23    24    1
     5    23    16    1
     6    22    20    1
     7    17    16   ar
     8    17    19   ar
     9    16    14   ar
    10    20    19    1
    11    20    21    1
    12    20     2    1
    13    19    12   ar
    14    14    15    1
    15    14    13   ar
    16     1     2    1
    17     2     3    1
    18    12    13   ar
    19    12    11    1
    20    50    47    1
    21    13    27    1
    22    49    47    1
    23    47    48    1
    24    47    32    1
    25    11     3   ar
    26    11     9   ar
    27     3     4   ar
    28    30    27    1
    29    27    28    1
    30    27    29    1
    31    34    33    1
    32    32    33   ar
    33    32    31   ar
    34    10     9    1
    35     9     7   ar
    36    33    35   ar
    37     4    31    1
    38     4     5   ar
    39    44    43    1
    40    31    38   ar
    41    35    43    1
    42    35    36   ar
    43     7     5   ar
    44     7     8    1
    45    41    39    1
    46     5     6    1
    47    43    46    1
    48    43    45    1
    49    38    36   ar
    50    38    39    1
    51    36    37    1
    52    39    40    1
    53    39    42    1
