@<TRIPOS>MOLECULE
1
 22 21 0 0 0
SMALL
GASTEIGER

@<TRIPOS>ATOM
      1 SI          4.5461    2.2533    0.0306 Si      1  UNL1        0.0000
      2 C           4.1777    0.8332    1.3068 C.3     1  UNL1        0.0000
      3 H           3.1571    0.4700    1.1888 H       1  UNL1        0.0000
      4 H           4.8224   -0.0136    1.0678 H       1  UNL1        0.0000
      5 C           4.3990    1.2187    2.7618 C.3     1  UNL1        0.0000
      6 H           5.4472    1.4381    2.9410 H       1  UNL1        0.0000
      7 H           4.1024    0.4121    3.4329 H       1  UNL1        0.0000
      8 H           3.8258    2.1064    3.0148 H       1  UNL1        0.0000
      9 C           6.4536    2.4773    0.3252 C.3     1  UNL1        0.0000
     10 H           6.6204    2.6388    1.3895 H       1  UNL1        0.0000
     11 H           6.9755    1.5547    0.0713 H       1  UNL1        0.0000
     12 C           7.1008    3.6308   -0.4278 C.3     1  UNL1        0.0000
     13 H           7.0000    3.4996   -1.5019 H       1  UNL1        0.0000
     14 H           8.1629    3.7002   -0.1921 H       1  UNL1        0.0000
     15 H           6.6255    4.5743   -0.1552 H       1  UNL1        0.0000
     16 C           4.3548    1.3224   -1.6713 C.3     1  UNL1        0.0000
     17 H           3.5292    0.6157   -1.5959 H       1  UNL1        0.0000
     18 H           4.0870    2.0334   -2.4523 H       1  UNL1        0.0000
     19 C           5.5886    0.5536   -2.1282 C.3     1  UNL1        0.0000
     20 H           6.4211    1.2299   -2.2964 H       1  UNL1        0.0000
     21 H           5.3887    0.0240   -3.0600 H       1  UNL1        0.0000
     22 H           5.8844   -0.1781   -1.3808 H       1  UNL1        0.0000
@<TRIPOS>BOND
     1    21    19    1
     2    18    16    1
     3    20    19    1
     4    19    16    1
     5    19    22    1
     6    16    17    1
     7    16     1    1
     8    13    12    1
     9    12    14    1
    10    12    15    1
    11    12     9    1
    12     1     9    1
    13     1     2    1
    14    11     9    1
    15     9    10    1
    16     4     2    1
    17     3     2    1
    18     2     5    1
    19     5     6    1
    20     5     8    1
    21     5     7    1
