@<TRIPOS>MOLECULE
1
 4 3 0 0 0
SMALL
GASTEIGER

@<TRIPOS>ATOM
      1 SI          1.1013   10.2278    6.6110 Si      1  UNL1        0.0000
      2 CL         -0.2083   11.3496    7.7761 Cl      1  UNL1        0.0000
      3 CL          0.8454   11.2363    4.7772 Cl      1  UNL1        0.0000
      4 CL          0.0533    8.4641    6.2615 Cl      1  UNL1        0.0000
@<TRIPOS>BOND
     1     3     1    1
     2     4     1    1
     3     1     2    1
