@<TRIPOS>MOLECULE
1
 13 12 0 0 0
SMALL
GASTEIGER

@<TRIPOS>ATOM
      1 SI          0.6534    1.7397    3.9958 Si      1  UNL1        0.0000
      2 C           1.2973    0.6272    2.5388 C.3     1  UNL1        0.0000
      3 H           2.3704    0.4946    2.6256 H       1  UNL1        0.0000
      4 H           1.1011    1.0596    1.5657 H       1  UNL1        0.0000
      5 H           0.8431   -0.3554    2.5673 H       1  UNL1        0.0000
      6 C           2.3371    2.5941    4.4779 C.3     1  UNL1        0.0000
      7 H           3.1342    1.8577    4.4586 H       1  UNL1        0.0000
      8 H           2.3316    3.0266    5.4729 H       1  UNL1        0.0000
      9 H           2.6029    3.3754    3.7737 H       1  UNL1        0.0000
     10 C           0.4791    0.4242    5.4216 C.3     1  UNL1        0.0000
     11 H           1.4058   -0.1311    5.5281 H       1  UNL1        0.0000
     12 H          -0.3056   -0.2924    5.1965 H       1  UNL1        0.0000
     13 H           0.2603    0.8765    6.3852 H       1  UNL1        0.0000
@<TRIPOS>BOND
     1     4     2    1
     2     2     5    1
     3     2     3    1
     4     2     1    1
     5     9     6    1
     6     1     6    1
     7     1    10    1
     8     7     6    1
     9     6     8    1
    10    12    10    1
    11    10    11    1
    12    10    13    1
