@<TRIPOS>MOLECULE
3
 7 6 0 0 0
SMALL
GASTEIGER

@<TRIPOS>ATOM
      1 CL         19.2794   11.0507   10.7758 Cl      1  UNL1        0.0000
      2 CL         18.2867   10.8697   13.8078 Cl      1  UNL1        0.0000
      3 SI         17.9069    9.9571   11.9244 Si      1  UNL1        0.0000
      4 C          18.8487    8.2845   12.1376 C.3     1  UNL1        0.0000
      5 H          19.8323    8.4417   12.5730 H       1  UNL1        0.0000
      6 H          18.9799    7.7934   11.1789 H       1  UNL1        0.0000
      7 H          18.3020    7.6006   12.7803 H       1  UNL1        0.0000
@<TRIPOS>BOND
     1     1     3    1
     2     6     4    1
     3     3     4    1
     4     3     2    1
     5     4     5    1
     6     4     7    1
