@<TRIPOS>MOLECULE
3
 7 6 0 0 0
SMALL
GASTEIGER

@<TRIPOS>ATOM
      1 CL         16.1247    6.3727   10.4913 Cl      1  UNL1        0.0000
      2 CL         14.1802    8.1223    8.5702 Cl      1  UNL1        0.0000
      3 SI         15.9282    8.3312    9.7230 Si      1  UNL1        0.0000
      4 C          17.2942    8.3230    8.3580 C.3     1  UNL1        0.0000
      5 H          17.5711    7.3045    8.1007 H       1  UNL1        0.0000
      6 H          18.1847    8.8420    8.6951 H       1  UNL1        0.0000
      7 H          16.9464    8.8154    7.4561 H       1  UNL1        0.0000
@<TRIPOS>BOND
     1     7     4    1
     2     5     4    1
     3     4     6    1
     4     4     3    1
     5     2     3    1
     6     3     1    1
