@<TRIPOS>MOLECULE
1
 4 3 0 0 0
SMALL
GASTEIGER

@<TRIPOS>ATOM
      1 SI          2.9475    8.2725    8.7967 Si      1  UNL1        0.0000
      2 CL          3.0313    6.2812    8.1622 Cl      1  UNL1        0.0000
      3 CL          4.5129    8.3254   10.1928 Cl      1  UNL1        0.0000
      4 CL          1.2710    8.2039   10.0124 Cl      1  UNL1        0.0000
@<TRIPOS>BOND
     1     2     1    1
     2     1     4    1
     3     1     3    1
