@<TRIPOS>MOLECULE
1
 13 12 0 0 0
SMALL
GASTEIGER

@<TRIPOS>ATOM
      1 SI         -0.9233    3.7344    1.6343 Si      1  UNL1        0.0000
      2 C          -1.3157    2.5204    0.1702 C.3     1  UNL1        0.0000
      3 H          -1.3166    3.0701   -0.7653 H       1  UNL1        0.0000
      4 H          -2.2917    2.0576    0.2776 H       1  UNL1        0.0000
      5 H          -0.5746    1.7350    0.0795 H       1  UNL1        0.0000
      6 C          -1.9680    5.2534    0.9867 C.3     1  UNL1        0.0000
      7 H          -1.5966    5.5443    0.0084 H       1  UNL1        0.0000
      8 H          -1.9095    6.1320    1.6207 H       1  UNL1        0.0000
      9 H          -3.0153    4.9960    0.8681 H       1  UNL1        0.0000
     10 C           0.8862    4.3101    1.2271 C.3     1  UNL1        0.0000
     11 H           0.9503    4.6500    0.1985 H       1  UNL1        0.0000
     12 H           1.5962    3.5017    1.3546 H       1  UNL1        0.0000
     13 H           1.2074    5.1296    1.8630 H       1  UNL1        0.0000
@<TRIPOS>BOND
     1     3     2    1
     2     7     6    1
     3     5     2    1
     4     2     4    1
     5     2     1    1
     6    11    10    1
     7     9     6    1
     8     6     8    1
     9     6     1    1
    10    10    12    1
    11    10     1    1
    12    10    13    1
