@<TRIPOS>MOLECULE
1
 24 25 0 0 0
SMALL
GASTEIGER

@<TRIPOS>ATOM
      1 SI          1.4939   -0.7118    2.8129 Si      1  UNL1        0.0000
      2 H           0.5305   -1.7449    3.3361 H       1  UNL1        0.0000
      3 C           3.0955   -1.1511    3.7655 C.ar    1  UNL1        0.0000
      4 C           3.5619   -0.3983    4.8359 C.ar    1  UNL1        0.0000
      5 H           3.0067    0.4761    5.1432 H       1  UNL1        0.0000
      6 C           4.7162   -0.7467    5.5145 C.ar    1  UNL1        0.0000
      7 H           5.0601   -0.1427    6.3430 H       1  UNL1        0.0000
      8 C           5.4324   -1.8679    5.1325 C.ar    1  UNL1        0.0000
      9 H           6.3373   -2.1417    5.6565 H       1  UNL1        0.0000
     10 C           4.9779   -2.6378    4.0751 C.ar    1  UNL1        0.0000
     11 H           5.5269   -3.5190    3.7733 H       1  UNL1        0.0000
     12 C           3.8225   -2.2811    3.4038 C.ar    1  UNL1        0.0000
     13 H           3.4770   -2.8904    2.5813 H       1  UNL1        0.0000
     14 C           1.8422   -1.3733    1.0475 C.ar    1  UNL1        0.0000
     15 C           0.8922   -2.1053    0.3443 C.ar    1  UNL1        0.0000
     16 H          -0.0620   -2.3098    0.8060 H       1  UNL1        0.0000
     17 C           1.1509   -2.5904   -0.9254 C.ar    1  UNL1        0.0000
     18 H           0.3957   -3.1580   -1.4514 H       1  UNL1        0.0000
     19 C           2.3779   -2.3545   -1.5215 C.ar    1  UNL1        0.0000
     20 H           2.5832   -2.7289   -2.5143 H       1  UNL1        0.0000
     21 C           3.3457   -1.6462   -0.8292 C.ar    1  UNL1        0.0000
     22 H           4.3137   -1.4727   -1.2789 H       1  UNL1        0.0000
     23 C           3.0760   -1.1650    0.4389 C.ar    1  UNL1        0.0000
     24 H           3.8500   -0.6370    0.9791 H       1  UNL1        0.0000
@<TRIPOS>BOND
     1    20    19    1
     2    19    17   ar
     3    19    21   ar
     4    18    17    1
     5    22    21    1
     6    17    15   ar
     7    21    23   ar
     8    15    16    1
     9    15    14   ar
    10    23    24    1
    11    23    14   ar
    12    14     1    1
    13    13    12    1
    14     1     2    1
    15     1     3    1
    16    12     3   ar
    17    12    10   ar
    18     3     4   ar
    19    11    10    1
    20    10     8   ar
    21     4     5    1
    22     4     6   ar
    23     8     6   ar
    24     8     9    1
    25     6     7    1
