@<TRIPOS>MOLECULE
1
 24 25 0 0 0
SMALL
GASTEIGER

@<TRIPOS>ATOM
      1 SI          3.5032    7.9821    5.8233 Si      1  UNL1        0.0000
      2 H           4.4683    9.0143    5.3017 H       1  UNL1        0.0000
      3 C           1.9030    8.4244    4.8697 C.ar    1  UNL1        0.0000
      4 C           1.4338    7.6708    3.8011 C.ar    1  UNL1        0.0000
      5 H           1.9864    6.7943    3.4951 H       1  UNL1        0.0000
      6 C           0.2801    8.0214    3.1224 C.ar    1  UNL1        0.0000
      7 H          -0.0658    7.4169    2.2951 H       1  UNL1        0.0000
      8 C          -0.4323    9.1455    3.5025 C.ar    1  UNL1        0.0000
      9 H          -1.3366    9.4211    2.9783 H       1  UNL1        0.0000
     10 C           0.0251    9.9163    4.5579 C.ar    1  UNL1        0.0000
     11 H          -0.5209   10.7999    4.8584 H       1  UNL1        0.0000
     12 C           1.1797    9.5573    5.2294 C.ar    1  UNL1        0.0000
     13 H           1.5276   10.1671    6.0507 H       1  UNL1        0.0000
     14 C           3.1537    8.6430    7.5887 C.ar    1  UNL1        0.0000
     15 C           4.1041    9.3727    8.2937 C.ar    1  UNL1        0.0000
     16 H           5.0594    9.5756    7.8332 H       1  UNL1        0.0000
     17 C           3.8447    9.8573    9.5633 C.ar    1  UNL1        0.0000
     18 H           4.6004   10.4229   10.0909 H       1  UNL1        0.0000
     19 C           2.6166    9.6233   10.1577 C.ar    1  UNL1        0.0000
     20 H           2.4107    9.9974   11.1505 H       1  UNL1        0.0000
     21 C           1.6483    8.9174    9.4636 C.ar    1  UNL1        0.0000
     22 H           0.6793    8.7454    9.9120 H       1  UNL1        0.0000
     23 C           1.9187    8.4367    8.1955 C.ar    1  UNL1        0.0000
     24 H           1.1444    7.9106    7.6538 H       1  UNL1        0.0000
@<TRIPOS>BOND
     1     7     6    1
     2     9     8    1
     3     6     8   ar
     4     6     4   ar
     5     5     4    1
     6     8    10   ar
     7     4     3   ar
     8    10    11    1
     9    10    12   ar
    10     3    12   ar
    11     3     1    1
    12    12    13    1
    13     2     1    1
    14     1    14    1
    15    14    23   ar
    16    14    15   ar
    17    24    23    1
    18    16    15    1
    19    23    21   ar
    20    15    17   ar
    21    21    22    1
    22    21    19   ar
    23    17    18    1
    24    17    19   ar
    25    19    20    1
