@<TRIPOS>MOLECULE
13
 13 12 0 0 0
SMALL
GASTEIGER

@<TRIPOS>ATOM
      1 C          17.6522    8.9793    9.1391 C.3     1  UNL1        0.0000
      2 H          18.5231    8.7249    8.5410 H       1  UNL1        0.0000
      3 H          18.0037    9.2567   10.1283 H       1  UNL1        0.0000
      4 H          17.1938    9.8581    8.6964 H       1  UNL1        0.0000
      5 C          15.5764    7.5202    7.4704 C.3     1  UNL1        0.0000
      6 H          16.2939    7.2981    6.6860 H       1  UNL1        0.0000
      7 H          15.1535    8.4955    7.2517 H       1  UNL1        0.0000
      8 H          14.7704    6.7949    7.4004 H       1  UNL1        0.0000
      9 C          14.9070    8.3526   10.2247 C.3     1  UNL1        0.0000
     10 H          14.6458    9.2964    9.7560 H       1  UNL1        0.0000
     11 H          15.1590    8.5693   11.2569 H       1  UNL1        0.0000
     12 H          14.0162    7.7306   10.2178 H       1  UNL1        0.0000
     13 SI         16.3637    7.5383    9.2447 Si      1  UNL1        0.0000
@<TRIPOS>BOND
     1     6     5    1
     2     7     5    1
     3     8     5    1
     4     5    13    1
     5     2     1    1
     6     4     1    1
     7     1    13    1
     8     1     3    1
     9    13     9    1
    10    10     9    1
    11    12     9    1
    12     9    11    1
