@<TRIPOS>MOLECULE
1
 13 12 0 0 0
SMALL
GASTEIGER

@<TRIPOS>ATOM
      1 SI          5.3481    3.1146    8.2857 Si      1  UNL1        0.0000
      2 C           5.2129    2.7192   10.1749 C.3     1  UNL1        0.0000
      3 H           5.8681    1.8895   10.4221 H       1  UNL1        0.0000
      4 H           4.2077    2.4375   10.4677 H       1  UNL1        0.0000
      5 H           5.5144    3.5655   10.7854 H       1  UNL1        0.0000
      6 C           5.1450    1.3627    7.4820 C.3     1  UNL1        0.0000
      7 H           5.8735    0.6717    7.8951 H       1  UNL1        0.0000
      8 H           5.2755    1.3746    6.4033 H       1  UNL1        0.0000
      9 H           4.1579    0.9601    7.6861 H       1  UNL1        0.0000
     10 C           7.2663    3.4108    8.1590 C.3     1  UNL1        0.0000
     11 H           7.7930    2.6098    8.6682 H       1  UNL1        0.0000
     12 H           7.5564    4.3430    8.6357 H       1  UNL1        0.0000
     13 H           7.6291    3.4334    7.1354 H       1  UNL1        0.0000
@<TRIPOS>BOND
     1     8     6    1
     2    13    10    1
     3     6     9    1
     4     6     7    1
     5     6     1    1
     6    10     1    1
     7    10    12    1
     8    10    11    1
     9     1     2    1
    10     2     3    1
    11     2     4    1
    12     2     5    1
