@<TRIPOS>MOLECULE
1
 24 25 0 0 0
SMALL
GASTEIGER

@<TRIPOS>ATOM
      1 SI          2.5471    6.5888    4.5765 Si      1  UNL1        0.0000
      2 C           4.0635    7.5202    5.2880 C.ar    1  UNL1        0.0000
      3 C           3.9545    8.2596    6.4584 C.ar    1  UNL1        0.0000
      4 C           5.0322    8.9546    6.9776 C.ar    1  UNL1        0.0000
      5 C           6.2531    8.9258    6.3252 C.ar    1  UNL1        0.0000
      6 C           6.3817    8.1974    5.1552 C.ar    1  UNL1        0.0000
      7 C           5.2969    7.5026    4.6509 C.ar    1  UNL1        0.0000
      8 C           2.1899    7.7305    3.0679 C.ar    1  UNL1        0.0000
      9 C           3.0564    7.8289    1.9860 C.ar    1  UNL1        0.0000
     10 C           2.7851    8.6545    0.9098 C.ar    1  UNL1        0.0000
     11 C           1.6250    9.4098    0.8904 C.ar    1  UNL1        0.0000
     12 C           0.7513    9.3361    1.9616 C.ar    1  UNL1        0.0000
     13 C           1.0384    8.5079    3.0323 C.ar    1  UNL1        0.0000
     14 H           1.4565    7.1302    5.4826 H       1  UNL1        0.0000
     15 H           3.0042    8.2895    6.9730 H       1  UNL1        0.0000
     16 H           4.9220    9.5231    7.8917 H       1  UNL1        0.0000
     17 H           7.0980    9.4696    6.7249 H       1  UNL1        0.0000
     18 H           7.3319    8.1710    4.6378 H       1  UNL1        0.0000
     19 H           5.4146    6.9338    3.7388 H       1  UNL1        0.0000
     20 H           3.9680    7.2507    1.9800 H       1  UNL1        0.0000
     21 H           3.4793    8.7110    0.0819 H       1  UNL1        0.0000
     22 H           1.4065   10.0549    0.0507 H       1  UNL1        0.0000
     23 H          -0.1538    9.9288    1.9626 H       1  UNL1        0.0000
     24 H           0.3510    8.4714    3.8667 H       1  UNL1        0.0000
@<TRIPOS>BOND
     1    22    11    1
     2    21    10    1
     3    11    10   ar
     4    11    12   ar
     5    10     9   ar
     6    12    23    1
     7    12    13   ar
     8    20     9    1
     9     9     8   ar
    10    13     8   ar
    11    13    24    1
    12     8     1    1
    13    19     7    1
    14     1     2    1
    15     1    14    1
    16    18     6    1
    17     7     6   ar
    18     7     2   ar
    19     6     5   ar
    20     2     3   ar
    21     5    17    1
    22     5     4   ar
    23     3    15    1
    24     3     4   ar
    25     4    16    1
