@<TRIPOS>MOLECULE
1
 36 37 0 0 0
SMALL
GASTEIGER

@<TRIPOS>ATOM
      1 SI          5.5003    4.6730    3.1943 Si      1  UNL1        0.0000
      2 C           6.3368    5.7580    4.6281 C.3     1  UNL1        0.0000
      3 C           6.2811    7.2291    4.2064 C.3     1  UNL1        0.0000
      4 H           6.8139    7.8500    4.9265 H       1  UNL1        0.0000
      5 H           5.2527    7.5768    4.1566 H       1  UNL1        0.0000
      6 H           6.7349    7.3586    3.2300 H       1  UNL1        0.0000
      7 C           5.5830    5.6197    5.9541 C.3     1  UNL1        0.0000
      8 H           6.0576    6.2336    6.7192 H       1  UNL1        0.0000
      9 H           5.5724    4.5906    6.3007 H       1  UNL1        0.0000
     10 H           4.5540    5.9507    5.8440 H       1  UNL1        0.0000
     11 C           7.8022    5.3820    4.8467 C.3     1  UNL1        0.0000
     12 H           8.3402    5.3783    3.9028 H       1  UNL1        0.0000
     13 H           7.8941    4.3974    5.2952 H       1  UNL1        0.0000
     14 H           8.2791    6.0963    5.5186 H       1  UNL1        0.0000
     15 C           3.7978    5.5808    3.0761 C.ar    1  UNL1        0.0000
     16 C           3.6224    6.6286    2.1749 C.ar    1  UNL1        0.0000
     17 H           4.4410    6.8888    1.5222 H       1  UNL1        0.0000
     18 C           2.4308    7.3260    2.0980 C.ar    1  UNL1        0.0000
     19 H           2.3213    8.1344    1.3885 H       1  UNL1        0.0000
     20 C           1.3753    6.9907    2.9301 C.ar    1  UNL1        0.0000
     21 H           0.4412    7.5305    2.8713 H       1  UNL1        0.0000
     22 C           1.5295    5.9587    3.8392 C.ar    1  UNL1        0.0000
     23 H           0.7141    5.6924    4.4968 H       1  UNL1        0.0000
     24 C           2.7267    5.2672    3.9108 C.ar    1  UNL1        0.0000
     25 H           2.8304    4.4662    4.6276 H       1  UNL1        0.0000
     26 C           4.9909    2.9499    3.9123 C.ar    1  UNL1        0.0000
     27 C           5.7386    2.2747    4.8757 C.ar    1  UNL1        0.0000
     28 H           6.6241    2.7353    5.2848 H       1  UNL1        0.0000
     29 C           5.3763    1.0214    5.3369 C.ar    1  UNL1        0.0000
     30 H           5.9804    0.5287    6.0856 H       1  UNL1        0.0000
     31 C           4.2442    0.3992    4.8417 C.ar    1  UNL1        0.0000
     32 H           3.9597   -0.5806    5.1965 H       1  UNL1        0.0000
     33 C           3.4780    1.0501    3.8902 C.ar    1  UNL1        0.0000
     34 H           2.5871    0.5796    3.4997 H       1  UNL1        0.0000
     35 C           3.8495    2.3023    3.4371 C.ar    1  UNL1        0.0000
     36 H           3.2269    2.7938    2.7043 H       1  UNL1        0.0000
@<TRIPOS>BOND
     1    19    18    1
     2    17    16    1
     3    18    16   ar
     4    18    20   ar
     5    16    15   ar
     6    36    35    1
     7    21    20    1
     8    20    22   ar
     9    15     1    1
    10    15    24   ar
    11     1    26    1
    12     1     2    1
    13     6     3    1
    14    35    33   ar
    15    35    26   ar
    16    34    33    1
    17    22    24   ar
    18    22    23    1
    19    33    31   ar
    20    12    11    1
    21    24    25    1
    22    26    27   ar
    23     5     3    1
    24     3     2    1
    25     3     4    1
    26     2    11    1
    27     2     7    1
    28    31    32    1
    29    31    29   ar
    30    11    13    1
    31    11    14    1
    32    27    28    1
    33    27    29   ar
    34    29    30    1
    35    10     7    1
    36     7     9    1
    37     7     8    1
