@<TRIPOS>MOLECULE
1
 38 37 0 0 0
SMALL
GASTEIGER

@<TRIPOS>ATOM
      1 SI         -5.8613    3.5227   -5.0670 Si      1  UNL1        0.0000
      2 C          -6.0514    4.1620   -3.2464 C.3     1  UNL1        0.0000
      3 C          -7.6992    3.5342   -5.6803 C.3     1  UNL1        0.0000
      4 P          -6.0769    0.2270   -4.1300 P.3     1  UNL1        0.0000
      5 O          -5.9099    1.6425   -4.5649 O.3     1  UNL1        0.0000
      6 N          -7.6522   -0.3222   -3.9972 N.3     1  UNL1        0.0000
      7 C          -8.4490    0.2678   -2.9367 C.3     1  UNL1        0.0000
      8 C          -8.3908   -0.4474   -5.2418 C.3     1  UNL1        0.0000
      9 N          -5.4866    0.0556   -2.5746 N.3     1  UNL1        0.0000
     10 C          -5.6056   -1.2110   -1.8838 C.3     1  UNL1        0.0000
     11 C          -4.3236    0.8287   -2.1876 C.3     1  UNL1        0.0000
     12 N          -5.4136   -0.7803   -5.2806 N.3     1  UNL1        0.0000
     13 C          -4.2680   -0.3343   -6.0467 C.3     1  UNL1        0.0000
     14 C          -5.5141   -2.2175   -5.1431 C.3     1  UNL1        0.0000
     15 H          -8.9159    1.2061   -3.2540 H       1  UNL1        0.0000
     16 H          -7.8169    0.4698   -2.0756 H       1  UNL1        0.0000
     17 H          -9.2369   -0.4331   -2.6519 H       1  UNL1        0.0000
     18 H          -8.8681    0.4953   -5.5262 H       1  UNL1        0.0000
     19 H          -9.1647   -1.2087   -5.1207 H       1  UNL1        0.0000
     20 H          -7.7137   -0.7440   -6.0388 H       1  UNL1        0.0000
     21 H          -5.7295   -1.0221   -0.8143 H       1  UNL1        0.0000
     22 H          -4.7175   -1.8378   -2.0173 H       1  UNL1        0.0000
     23 H          -6.4786   -1.7452   -2.2501 H       1  UNL1        0.0000
     24 H          -3.3947    0.2610   -2.3026 H       1  UNL1        0.0000
     25 H          -4.4218    1.1254   -1.1408 H       1  UNL1        0.0000
     26 H          -4.2688    1.7209   -2.8050 H       1  UNL1        0.0000
     27 H          -4.2369    0.7557   -6.0504 H       1  UNL1        0.0000
     28 H          -4.3648   -0.6840   -7.0768 H       1  UNL1        0.0000
     29 H          -3.3278   -0.7157   -5.6355 H       1  UNL1        0.0000
     30 H          -4.6211   -2.6479   -4.6773 H       1  UNL1        0.0000
     31 H          -5.6276   -2.6639   -6.1343 H       1  UNL1        0.0000
     32 H          -6.3865   -2.4659   -4.5436 H       1  UNL1        0.0000
     33 H          -6.7441    3.5527   -2.6708 H       1  UNL1        0.0000
     34 H          -6.4224    5.1829   -3.2497 H       1  UNL1        0.0000
     35 H          -5.1000    4.1705   -2.7220 H       1  UNL1        0.0000
     36 H          -7.8314    2.8819   -6.5390 H       1  UNL1        0.0000
     37 H          -7.9807    4.5361   -5.9897 H       1  UNL1        0.0000
     38 H          -8.3940    3.2181   -4.9055 H       1  UNL1        0.0000
@<TRIPOS>BOND
     1    28    13    1
     2    36     3    1
     3    31    14    1
     4    27    13    1
     5    13    29    1
     6    13    12    1
     7    20     8    1
     8    37     3    1
     9     3     1    1
    10     3    38    1
    11    18     8    1
    12    12    14    1
    13    12     4    1
    14     8    19    1
    15     8     6    1
    16    14    30    1
    17    14    32    1
    18     1     5    1
    19     1     2    1
    20     5     4    1
    21     4     6    1
    22     4     9    1
    23     6     7    1
    24    15     7    1
    25    34     2    1
    26     2    35    1
    27     2    33    1
    28     7    17    1
    29     7    16    1
    30    26    11    1
    31     9    11    1
    32     9    10    1
    33    24    11    1
    34    23    10    1
    35    11    25    1
    36    22    10    1
    37    10    21    1
