@<TRIPOS>MOLECULE
1
 7 6 0 0 0
SMALL
GASTEIGER

@<TRIPOS>ATOM
      1 SI         -0.9817    3.8979    4.3440 Si      1  UNL1        0.0000
      2 CL         -3.0398    3.5659    4.0261 Cl      1  UNL1        0.0000
      3 CL         -0.8125    3.3723    6.3768 Cl      1  UNL1        0.0000
      4 C          -0.8986    5.8156    4.5036 C.3     1  UNL1        0.0000
      5 H          -1.1012    6.3040    3.5575 H       1  UNL1        0.0000
      6 H           0.0877    6.1316    4.8266 H       1  UNL1        0.0000
      7 H          -1.6247    6.1696    5.2319 H       1  UNL1        0.0000
@<TRIPOS>BOND
     1     5     4    1
     2     2     1    1
     3     1     4    1
     4     1     3    1
     5     4     6    1
     6     4     7    1
