@<TRIPOS>MOLECULE
1
 40 40 0 0 0
SMALL
GASTEIGER

@<TRIPOS>ATOM
      1 SI         14.0634    3.5899   15.2838 Si      1  UNL1        0.0000
      2 C          14.2325    5.0908   12.5290 C.3     1  UNL1        0.0000
      3 H          13.7284    5.3608   13.4643 H       1  UNL1        0.0000
      4 C          14.2039    3.5862   12.4004 C.ar    1  UNL1        0.0000
      5 C          14.1221    0.5117   14.6250 C.3     1  UNL1        0.0000
      6 H          13.6940    1.0977   15.4472 H       1  UNL1        0.0000
      7 C          14.2194    0.8289   12.1407 C.ar    1  UNL1        0.0000
      8 H          14.2265   -0.2454   12.0410 H       1  UNL1        0.0000
      9 C          14.2696    2.9915   11.1489 C.ar    1  UNL1        0.0000
     10 H          14.3170    3.6066   10.2626 H       1  UNL1        0.0000
     11 C          14.2769    1.6138   10.9995 C.ar    1  UNL1        0.0000
     12 C          14.1572    2.7879   13.5470 C.ar    1  UNL1        0.0000
     13 C          14.1536    1.3981   13.4024 C.ar    1  UNL1        0.0000
     14 C          15.5511    0.1272   15.0131 C.3     1  UNL1        0.0000
     15 H          15.5521   -0.4762   15.9187 H       1  UNL1        0.0000
     16 H          16.1464    1.0195   15.1871 H       1  UNL1        0.0000
     17 H          16.0151   -0.4459   14.2133 H       1  UNL1        0.0000
     18 C          13.0786    0.1714    9.3461 C.3     1  UNL1        0.0000
     19 H          12.1925    0.7938    9.4536 H       1  UNL1        0.0000
     20 H          12.9974   -0.6616   10.0404 H       1  UNL1        0.0000
     21 H          13.1024   -0.2266    8.3336 H       1  UNL1        0.0000
     22 C          14.3404    0.9906    9.6265 C.3     1  UNL1        0.0000
     23 H          14.3929    1.7981    8.8869 H       1  UNL1        0.0000
     24 C          13.2640   -0.7421   14.4466 C.3     1  UNL1        0.0000
     25 H          12.2988   -0.4917   14.0101 H       1  UNL1        0.0000
     26 H          13.0953   -1.2172   15.4115 H       1  UNL1        0.0000
     27 H          13.7536   -1.4680   13.8018 H       1  UNL1        0.0000
     28 C          13.5213    5.8177   11.3865 C.3     1  UNL1        0.0000
     29 H          12.5471    5.3739   11.1903 H       1  UNL1        0.0000
     30 H          14.1051    5.7847   10.4695 H       1  UNL1        0.0000
     31 H          13.3768    6.8631   11.6512 H       1  UNL1        0.0000
     32 C          15.5936    0.1261    9.4752 C.3     1  UNL1        0.0000
     33 H          16.4851    0.7138    9.6840 H       1  UNL1        0.0000
     34 H          15.6639   -0.2638    8.4617 H       1  UNL1        0.0000
     35 H          15.5691   -0.7148   10.1642 H       1  UNL1        0.0000
     36 C          15.6860    5.5598   12.6271 C.3     1  UNL1        0.0000
     37 H          16.1774    5.0877   13.4734 H       1  UNL1        0.0000
     38 H          15.7271    6.6385   12.7593 H       1  UNL1        0.0000
     39 H          16.2278    5.2986   11.7200 H       1  UNL1        0.0000
     40 H          15.5654    3.5632   15.5512 H       1  UNL1        0.0000
@<TRIPOS>BOND
     1    21    18    1
     2    34    32    1
     3    23    22    1
     4    18    19    1
     5    18    22    1
     6    18    20    1
     7    32    22    1
     8    32    33    1
     9    32    35    1
    10    22    11    1
    11    10     9    1
    12    30    28    1
    13    11     9   ar
    14    11     7   ar
    15     9     4   ar
    16    29    28    1
    17    28    31    1
    18    28     2    1
    19    39    36    1
    20     8     7    1
    21     7    13   ar
    22     4     2    1
    23     4    12   ar
    24     2    36    1
    25     2     3    1
    26    36    38    1
    27    36    37    1
    28    13    12   ar
    29    13     5    1
    30    12     1    1
    31    27    24    1
    32    25    24    1
    33    17    14    1
    34    24     5    1
    35    24    26    1
    36     5    14    1
    37     5     6    1
    38    14    16    1
    39    14    15    1
    40     1    40    1
