@<TRIPOS>MOLECULE
1
 22 21 0 0 0
SMALL
GASTEIGER

@<TRIPOS>ATOM
      1 SI          1.1024    3.9102   14.7167 Si      1  UNL1        0.0000
      2 C          -0.7503    3.8789   15.3479 C.3     1  UNL1        0.0000
      3 H          -1.1630    4.8880   15.3715 H       1  UNL1        0.0000
      4 H          -1.3407    3.3334   14.6110 H       1  UNL1        0.0000
      5 C          -0.9531    3.2441   16.7172 C.3     1  UNL1        0.0000
      6 H          -0.6112    2.2129   16.7187 H       1  UNL1        0.0000
      7 H          -2.0086    3.2520   16.9905 H       1  UNL1        0.0000
      8 H          -0.3997    3.7864   17.4797 H       1  UNL1        0.0000
      9 C           1.1885    2.3624   13.5421 C.3     1  UNL1        0.0000
     10 H           0.5249    2.5240   12.6921 H       1  UNL1        0.0000
     11 H           2.1963    2.2754   13.1356 H       1  UNL1        0.0000
     12 C           0.8041    1.0527   14.2175 C.3     1  UNL1        0.0000
     13 H           1.4406    0.8582   15.0762 H       1  UNL1        0.0000
     14 H           0.9031    0.2173   13.5242 H       1  UNL1        0.0000
     15 H          -0.2269    1.0868   14.5589 H       1  UNL1        0.0000
     16 C           2.2620    3.4691   16.2076 C.3     1  UNL1        0.0000
     17 H           2.4164    4.3554   16.8251 H       1  UNL1        0.0000
     18 H           1.7841    2.7241   16.8397 H       1  UNL1        0.0000
     19 C           3.6158    2.9429   15.7563 C.3     1  UNL1        0.0000
     20 H           3.5076    1.9872   15.2520 H       1  UNL1        0.0000
     21 H           4.2863    2.8073   16.6048 H       1  UNL1        0.0000
     22 H           4.0821    3.6397   15.0632 H       1  UNL1        0.0000
@<TRIPOS>BOND
     1    10     9    1
     2    11     9    1
     3    14    12    1
     4     9    12    1
     5     9     1    1
     6    12    15    1
     7    12    13    1
     8     4     2    1
     9     1     2    1
    10     1    16    1
    11    22    19    1
    12    20    19    1
    13     2     3    1
    14     2     5    1
    15    19    16    1
    16    19    21    1
    17    16    17    1
    18    16    18    1
    19     5     6    1
    20     5     7    1
    21     5     8    1
