@<TRIPOS>MOLECULE
1
 31 32 0 0 0
SMALL
GASTEIGER

@<TRIPOS>ATOM
      1 SI         11.5615    4.6333   12.4528 Si      1  UNL1        0.0000
      2 S          10.6522    6.8546   13.9563 S.3     1  UNL1        0.0000
      3 O          11.0247    5.4040   13.9895 O.3     1  UNL1        0.0000
      4 O          11.6898    7.7246   13.5328 O.3     1  UNL1        0.0000
      5 O           9.3194    7.0731   13.5084 O.3     1  UNL1        0.0000
      6 F          10.2713    8.3059   16.1979 F       1  UNL1        0.0000
      7 F           9.6624    6.2444   16.3642 F       1  UNL1        0.0000
      8 F          11.7517    6.7483   16.3780 F       1  UNL1        0.0000
      9 C          14.1622    5.4615   11.3974 C.ar    1  UNL1        0.0000
     10 C          15.4574    5.9430   11.4805 C.ar    1  UNL1        0.0000
     11 C          15.9992    6.2656   12.7125 C.ar    1  UNL1        0.0000
     12 C          15.2325    6.1068   13.8545 C.ar    1  UNL1        0.0000
     13 C          13.9404    5.6217   13.7619 C.ar    1  UNL1        0.0000
     14 C          13.3731    5.2897   12.5331 C.ar    1  UNL1        0.0000
     15 C          11.2789    7.0128   10.7717 C.ar    1  UNL1        0.0000
     16 C          10.5619    7.9029    9.9906 C.ar    1  UNL1        0.0000
     17 C           9.2513    7.6297    9.6403 C.ar    1  UNL1        0.0000
     18 C           8.6601    6.4550   10.0726 C.ar    1  UNL1        0.0000
     19 C           9.3831    5.5720   10.8516 C.ar    1  UNL1        0.0000
     20 C          10.6990    5.8316   11.2215 C.ar    1  UNL1        0.0000
     21 C          10.5743    7.0638   15.8281 C.3     1  UNL1        0.0000
     22 H          13.7448    5.2372   10.4279 H       1  UNL1        0.0000
     23 H          16.0427    6.0741   10.5808 H       1  UNL1        0.0000
     24 H          17.0080    6.6465   12.7812 H       1  UNL1        0.0000
     25 H          15.6407    6.3663   14.8209 H       1  UNL1        0.0000
     26 H          13.3489    5.5167   14.6583 H       1  UNL1        0.0000
     27 H          12.2943    7.2518   11.0466 H       1  UNL1        0.0000
     28 H          11.0281    8.8202    9.6603 H       1  UNL1        0.0000
     29 H           8.6913    8.3302    9.0373 H       1  UNL1        0.0000
     30 H           7.6348    6.2348    9.8081 H       1  UNL1        0.0000
     31 H           8.9255    4.6553   11.1997 H       1  UNL1        0.0000
@<TRIPOS>BOND
     1    29    17    1
     2    17    16   ar
     3    17    18   ar
     4    28    16    1
     5    30    18    1
     6    16    15   ar
     7    18    19   ar
     8    22     9    1
     9    23    10    1
    10    15    27    1
    11    15    20   ar
    12    19    31    1
    13    19    20   ar
    14    20     1    1
    15     9    10   ar
    16     9    14   ar
    17    10    11   ar
    18     1    14    1
    19     1     3    1
    20    14    13   ar
    21    11    24    1
    22    11    12   ar
    23     5     2    1
    24     4     2    1
    25    13    12   ar
    26    13    26    1
    27    12    25    1
    28     2     3    1
    29     2    21    1
    30    21     6    1
    31    21     7    1
    32    21     8    1
