@<TRIPOS>MOLECULE
1
 24 25 0 0 0
SMALL
GASTEIGER

@<TRIPOS>ATOM
      1 SI         -1.5861    0.7566    3.8486 Si      1  UNL1        0.0000
      2 C          -3.2131    0.9505    1.4580 C.ar    1  UNL1        0.0000
      3 C          -3.6657    1.5325    0.2871 C.ar    1  UNL1        0.0000
      4 C          -3.1323    2.7356   -0.1449 C.ar    1  UNL1        0.0000
      5 C          -2.1477    3.3530    0.6075 C.ar    1  UNL1        0.0000
      6 C          -1.7048    2.7561    1.7741 C.ar    1  UNL1        0.0000
      7 C          -2.2195    1.5483    2.2216 C.ar    1  UNL1        0.0000
      8 C          -1.5408   -1.6878    2.2891 C.ar    1  UNL1        0.0000
      9 C          -1.7101   -3.0408    2.0526 C.ar    1  UNL1        0.0000
     10 C          -2.2080   -3.8613    3.0501 C.ar    1  UNL1        0.0000
     11 C          -2.5524   -3.3085    4.2718 C.ar    1  UNL1        0.0000
     12 C          -2.3786   -1.9534    4.4917 C.ar    1  UNL1        0.0000
     13 C          -1.8571   -1.1139    3.5142 C.ar    1  UNL1        0.0000
     14 H          -2.8597    0.9679    4.6540 H       1  UNL1        0.0000
     15 H          -3.6363    0.0138    1.7892 H       1  UNL1        0.0000
     16 H          -4.4388    1.0482   -0.2938 H       1  UNL1        0.0000
     17 H          -3.4830    3.1903   -1.0609 H       1  UNL1        0.0000
     18 H          -1.7276    4.2957    0.2803 H       1  UNL1        0.0000
     19 H          -0.9332    3.2287    2.3695 H       1  UNL1        0.0000
     20 H          -1.1798   -1.0544    1.4931 H       1  UNL1        0.0000
     21 H          -1.4563   -3.4574    1.0868 H       1  UNL1        0.0000
     22 H          -2.3391   -4.9196    2.8727 H       1  UNL1        0.0000
     23 H          -2.9615   -3.9360    5.0524 H       1  UNL1        0.0000
     24 H          -2.6733   -1.5325    5.4429 H       1  UNL1        0.0000
@<TRIPOS>BOND
     1    17     4    1
     2    16     3    1
     3     4     3   ar
     4     4     5   ar
     5    18     5    1
     6     3     2   ar
     7     5     6   ar
     8    21     9    1
     9     2    15    1
    10     2     7   ar
    11    20     8    1
    12     6     7   ar
    13     6    19    1
    14     9     8   ar
    15     9    10   ar
    16     7     1    1
    17     8    13   ar
    18    22    10    1
    19    10    11   ar
    20    13     1    1
    21    13    12   ar
    22     1    14    1
    23    11    12   ar
    24    11    23    1
    25    12    24    1
