@<TRIPOS>MOLECULE
1
 26 28 0 0 0
SMALL
GASTEIGER

@<TRIPOS>ATOM
      1 SI          8.1304    3.4036    2.9395 Si      1  UNL1        0.0000
      2 C           6.4577    2.4992    5.5466 C.2     1  UNL1        0.0000
      3 C           6.1874    3.9053    5.3861 C.2     1  UNL1        0.0000
      4 C           7.3419    4.5531    5.0521 C.2     1  UNL1        0.0000
      5 C           8.4127    3.5390    4.8845 C.3     1  UNL1        0.0000
      6 C           7.7778    2.2639    5.3008 C.2     1  UNL1        0.0000
      7 C           5.4118    1.5111    5.9413 C.3     1  UNL1        0.0000
      8 H           4.5860    1.5209    5.2294 H       1  UNL1        0.0000
      9 H           5.0060    1.7637    6.9206 H       1  UNL1        0.0000
     10 H           5.8185    0.5045    5.9879 H       1  UNL1        0.0000
     11 C           4.8396    4.5081    5.5897 C.3     1  UNL1        0.0000
     12 H           4.8000    5.5119    5.1756 H       1  UNL1        0.0000
     13 H           4.6018    4.5654    6.6528 H       1  UNL1        0.0000
     14 H           4.0744    3.9008    5.1084 H       1  UNL1        0.0000
     15 C           7.5603    6.0126    4.8569 C.3     1  UNL1        0.0000
     16 H           8.3640    6.1946    4.1457 H       1  UNL1        0.0000
     17 H           7.8257    6.4884    5.8024 H       1  UNL1        0.0000
     18 H           6.6616    6.4936    4.4775 H       1  UNL1        0.0000
     19 C           9.8229    3.8626    5.3274 C.3     1  UNL1        0.0000
     20 H          10.5082    3.0539    5.0826 H       1  UNL1        0.0000
     21 H           9.8434    4.0129    6.4062 H       1  UNL1        0.0000
     22 H          10.1793    4.7710    4.8473 H       1  UNL1        0.0000
     23 C           8.5312    0.9803    5.4006 C.3     1  UNL1        0.0000
     24 H           7.8798    0.1250    5.2333 H       1  UNL1        0.0000
     25 H           8.9748    0.8765    6.3926 H       1  UNL1        0.0000
     26 H           9.3364    0.9446    4.6686 H       1  UNL1        0.0000
@<TRIPOS>BOND
     1     1     5    1
     2    16    15    1
     3    18    15    1
     4    26    23    1
     5    22    19    1
     6    15     4    1
     7    15    17    1
     8     5     4    1
     9     5     6    1
    10     5    19    1
    11     4     3    2
    12    20    19    1
    13    14    11    1
    14    12    11    1
    15     8     7    1
    16    24    23    1
    17     6    23    1
    18     6     2    2
    19    19    21    1
    20     3     2    1
    21     3    11    1
    22    23    25    1
    23     2     7    1
    24    11    13    1
    25     7    10    1
    26     7     9    1
    27     1     4    0
    28     1     6    0
