@<TRIPOS>MOLECULE
1
 22 21 0 0 0
SMALL
GASTEIGER

@<TRIPOS>ATOM
      1 SI          2.3338   -0.7955    1.7002 Si      1  UNL1        0.0000
      2 C           0.8144   -1.8861    1.1461 C.3     1  UNL1        0.0000
      3 C          -0.2780   -1.0875    0.4488 C.3     1  UNL1        0.0000
      4 C           2.9569    0.0080    0.0444 C.3     1  UNL1        0.0000
      5 C           4.4209    0.4297    0.0476 C.3     1  UNL1        0.0000
      6 C           3.7539   -1.9924    2.2977 C.3     1  UNL1        0.0000
      7 C           3.9712   -3.1877    1.3784 C.3     1  UNL1        0.0000
      8 H           1.1658   -2.6664    0.4714 H       1  UNL1        0.0000
      9 H           0.3697   -2.3852    2.0067 H       1  UNL1        0.0000
     10 H          -0.6467   -0.3110    1.1115 H       1  UNL1        0.0000
     11 H           0.1069   -0.6164   -0.4501 H       1  UNL1        0.0000
     12 H          -1.1114   -1.7319    0.1727 H       1  UNL1        0.0000
     13 H           2.7978   -0.7022   -0.7687 H       1  UNL1        0.0000
     14 H           2.3475    0.8821   -0.1770 H       1  UNL1        0.0000
     15 H           5.0747   -0.4273    0.1891 H       1  UNL1        0.0000
     16 H           4.6837    0.9042   -0.8968 H       1  UNL1        0.0000
     17 H           4.6143    1.1419    0.8435 H       1  UNL1        0.0000
     18 H           4.6775   -1.4174    2.3552 H       1  UNL1        0.0000
     19 H           3.5601   -2.3560    3.3059 H       1  UNL1        0.0000
     20 H           3.0943   -3.8294    1.3702 H       1  UNL1        0.0000
     21 H           4.1628   -2.8612    0.3602 H       1  UNL1        0.0000
     22 H           4.8225   -3.7807    1.7120 H       1  UNL1        0.0000
@<TRIPOS>BOND
     1    16     5    1
     2    13     4    1
     3    11     3    1
     4    14     4    1
     5     4     5    1
     6     4     1    1
     7     5    15    1
     8     5    17    1
     9    12     3    1
    10    21     7    1
    11     3    10    1
    12     3     2    1
    13     8     2    1
    14     2     1    1
    15     2     9    1
    16    20     7    1
    17     7    22    1
    18     7     6    1
    19     1     6    1
    20     6    18    1
    21     6    19    1
