@<TRIPOS>MOLECULE
1
 30 31 0 0 0
SMALL
GASTEIGER

@<TRIPOS>ATOM
      1 SI          1.0760    2.7167   11.9434 Si      1  UNL1        0.0000
      2 H           1.1652    1.2249   12.0307 H       1  UNL1        0.0000
      3 C           1.9320    3.1463   10.2952 C.ar    1  UNL1        0.0000
      4 C           1.3663    4.1050    9.4634 C.ar    1  UNL1        0.0000
      5 H           0.4581    4.5942    9.7863 H       1  UNL1        0.0000
      6 C           1.9355    4.4526    8.2520 C.ar    1  UNL1        0.0000
      7 H           1.4734    5.2046    7.6282 H       1  UNL1        0.0000
      8 C           3.1039    3.8312    7.8487 C.ar    1  UNL1        0.0000
      9 H           3.5613    4.0878    6.9040 H       1  UNL1        0.0000
     10 C           3.6898    2.8840    8.6695 C.ar    1  UNL1        0.0000
     11 H           4.6094    2.4077    8.3578 H       1  UNL1        0.0000
     12 C           3.1226    2.5369    9.8889 C.ar    1  UNL1        0.0000
     13 C           3.7973    1.5179   10.7535 C.3     1  UNL1        0.0000
     14 H           3.1991    0.6097   10.8070 H       1  UNL1        0.0000
     15 H           3.9143    1.8988   11.7657 H       1  UNL1        0.0000
     16 H           4.7767    1.2621   10.3560 H       1  UNL1        0.0000
     17 C           2.2144    3.3455   13.3252 C.ar    1  UNL1        0.0000
     18 C           3.0320    4.4433   13.0801 C.ar    1  UNL1        0.0000
     19 H           3.0319    4.8836   12.0927 H       1  UNL1        0.0000
     20 C           3.8452    4.9747   14.0634 C.ar    1  UNL1        0.0000
     21 H           4.4727    5.8278   13.8487 H       1  UNL1        0.0000
     22 C           3.8470    4.4066   15.3253 C.ar    1  UNL1        0.0000
     23 H           4.4744    4.8133   16.1055 H       1  UNL1        0.0000
     24 C           3.0381    3.3146   15.5858 C.ar    1  UNL1        0.0000
     25 H           3.0403    2.8744   16.5738 H       1  UNL1        0.0000
     26 C           2.2203    2.7780   14.6009 C.ar    1  UNL1        0.0000
     27 C           1.3704    1.5841   14.9118 C.3     1  UNL1        0.0000
     28 H           0.3662    1.7144   14.5134 H       1  UNL1        0.0000
     29 H           1.3106    1.4239   15.9858 H       1  UNL1        0.0000
     30 H           1.7972    0.6923   14.4543 H       1  UNL1        0.0000
@<TRIPOS>BOND
     1     9     8    1
     2     7     6    1
     3     8     6   ar
     4     8    10   ar
     5     6     4   ar
     6    11    10    1
     7    10    12   ar
     8     4     5    1
     9     4     3   ar
    10    12     3   ar
    11    12    13    1
    12     3     1    1
    13    16    13    1
    14    13    14    1
    15    13    15    1
    16     1     2    1
    17     1    17    1
    18    19    18    1
    19    18    17   ar
    20    18    20   ar
    21    17    26   ar
    22    21    20    1
    23    20    22   ar
    24    30    27    1
    25    28    27    1
    26    26    27    1
    27    26    24   ar
    28    27    29    1
    29    22    24   ar
    30    22    23    1
    31    24    25    1
