@<TRIPOS>MOLECULE
1
 37 40 0 0 0
SMALL
GASTEIGER

@<TRIPOS>ATOM
      1 SI         11.9198    3.7209    1.8119 Si      1  UNL1        0.0000
      2 N           9.1046    2.5568    0.9898 N.ar    1  UNL1        0.0000
      3 N          12.5752    1.5392   -0.1658 N.ar    1  UNL1        0.0000
      4 C           7.9636    2.2184    0.4582 C.ar    1  UNL1        0.0000
      5 C           7.4698    0.9041    0.4234 C.ar    1  UNL1        0.0000
      6 C           8.2163   -0.0785    1.0137 C.ar    1  UNL1        0.0000
      7 C           9.4528    0.2499    1.6054 C.ar    1  UNL1        0.0000
      8 C          10.2596   -0.7014    2.2565 C.ar    1  UNL1        0.0000
      9 C          11.4416   -0.3121    2.8251 C.ar    1  UNL1        0.0000
     10 C          11.8714    1.0165    2.7245 C.ar    1  UNL1        0.0000
     11 C          11.1411    1.9806    2.0707 C.ar    1  UNL1        0.0000
     12 C           9.8853    1.6072    1.5404 C.ar    1  UNL1        0.0000
     13 C          12.5961    0.5488   -1.0083 C.ar    1  UNL1        0.0000
     14 C          13.7704   -0.1051   -1.4206 C.ar    1  UNL1        0.0000
     15 C          14.9624    0.3314   -0.9114 C.ar    1  UNL1        0.0000
     16 C          14.9755    1.3980    0.0104 C.ar    1  UNL1        0.0000
     17 C          16.1593    1.8909    0.5926 C.ar    1  UNL1        0.0000
     18 C          16.0902    2.9042    1.5063 C.ar    1  UNL1        0.0000
     19 C          14.8510    3.4558    1.8682 C.ar    1  UNL1        0.0000
     20 C          13.6679    3.0329    1.3208 C.ar    1  UNL1        0.0000
     21 C          13.7282    1.9834    0.3697 C.ar    1  UNL1        0.0000
     22 C          11.3205    4.3275    0.0782 C.3     1  UNL1        0.0000
     23 H           7.3806    3.0276    0.0316 H       1  UNL1        0.0000
     24 H           6.5206    0.6915   -0.0457 H       1  UNL1        0.0000
     25 H           7.8730   -1.1050    1.0404 H       1  UNL1        0.0000
     26 H           9.9294   -1.7308    2.2975 H       1  UNL1        0.0000
     27 H          12.0611   -1.0355    3.3383 H       1  UNL1        0.0000
     28 H          12.8242    1.2903    3.1542 H       1  UNL1        0.0000
     29 H          11.6323    0.2374   -1.3956 H       1  UNL1        0.0000
     30 H          13.7196   -0.9239   -2.1228 H       1  UNL1        0.0000
     31 H          15.8986   -0.1305   -1.1986 H       1  UNL1        0.0000
     32 H          17.1062    1.4492    0.3117 H       1  UNL1        0.0000
     33 H          16.9936    3.2829    1.9649 H       1  UNL1        0.0000
     34 H          14.8261    4.2315    2.6160 H       1  UNL1        0.0000
     35 H          10.3086    4.7097    0.1012 H       1  UNL1        0.0000
     36 H          11.3448    3.4942   -0.6130 H       1  UNL1        0.0000
     37 H          11.9781    5.1021   -0.3038 H       1  UNL1        0.0000
@<TRIPOS>BOND
     1    30    14    1
     2    14    13   ar
     3    14    15   ar
     4    29    13    1
     5    31    15    1
     6    13     3   ar
     7    15    16   ar
     8    36    22    1
     9    37    22    1
    10     3    21   ar
    11    24     5    1
    12    16    21   ar
    13    16    17   ar
    14    23     4    1
    15    22    35    1
    16    22     1    1
    17    32    17    1
    18    21    20   ar
    19     5     4   ar
    20     5     6   ar
    21     4     2   ar
    22    17    18   ar
    23     2    12   ar
    24     6    25    1
    25     6     7   ar
    26    20     1    1
    27    20    19   ar
    28    18    19   ar
    29    18    33    1
    30    12     7   ar
    31    12    11   ar
    32     7     8   ar
    33     1    11    1
    34    19    34    1
    35    11    10   ar
    36     8    26    1
    37     8     9   ar
    38    10     9   ar
    39    10    28    1
    40     9    27    1
