@<TRIPOS>MOLECULE
3
 40 41 0 0 0
SMALL
GASTEIGER

@<TRIPOS>ATOM
      1 N           1.4482    2.0469    1.4525 N.pl3   1  UNL1        0.0000
      2 N           2.1394    3.3454   -0.1137 N.pl3   1  UNL1        0.0000
      3 SI          4.2987    2.6990    1.7821 Si      1  UNL1        0.0000
      4 H           5.0376    2.9868    0.5022 H       1  UNL1        0.0000
      5 C           2.5451    2.6266    0.9451 C.3     1  UNL1        0.0000
      6 C           0.3419    2.3920    0.7126 C.2     1  UNL1        0.0000
      7 C           0.7794    3.2147   -0.2805 C.2     1  UNL1        0.0000
      8 C          -1.0293    1.9182    1.0292 C.3     1  UNL1        0.0000
      9 H          -1.7308    2.2939    0.2904 H       1  UNL1        0.0000
     10 H          -1.3370    2.2865    2.0071 H       1  UNL1        0.0000
     11 H          -1.0806    0.8306    1.0350 H       1  UNL1        0.0000
     12 C           0.0199    3.9081   -1.3529 C.3     1  UNL1        0.0000
     13 H          -1.0232    3.6088   -1.3171 H       1  UNL1        0.0000
     14 H           0.4149    3.6690   -2.3393 H       1  UNL1        0.0000
     15 H           0.0673    4.9874   -1.2121 H       1  UNL1        0.0000
     16 C           1.4084    1.1870    2.6055 C.3     1  UNL1        0.0000
     17 H           0.4876    1.3973    3.1543 H       1  UNL1        0.0000
     18 H           2.2585    1.4593    3.2328 H       1  UNL1        0.0000
     19 C           1.4760   -0.2897    2.2299 C.3     1  UNL1        0.0000
     20 H           0.6364   -0.5797    1.6017 H       1  UNL1        0.0000
     21 H           1.4554   -0.8937    3.1328 H       1  UNL1        0.0000
     22 H           2.3988   -0.4988    1.6964 H       1  UNL1        0.0000
     23 C           2.9823    4.0803   -1.0213 C.3     1  UNL1        0.0000
     24 H           3.8102    4.5014   -0.4551 H       1  UNL1        0.0000
     25 H           2.3978    4.9002   -1.4418 H       1  UNL1        0.0000
     26 C           3.5111    3.1786   -2.1335 C.3     1  UNL1        0.0000
     27 H           4.1499    2.4100   -1.7074 H       1  UNL1        0.0000
     28 H           4.0931    3.7643   -2.8395 H       1  UNL1        0.0000
     29 H           2.6948    2.6974   -2.6677 H       1  UNL1        0.0000
     30 C           4.6722    0.8232    1.8091 C.ar    1  UNL1        0.0000
     31 C           5.0569    0.2234    2.9979 C.ar    1  UNL1        0.0000
     32 H           5.1019    0.8487    3.8773 H       1  UNL1        0.0000
     33 C           5.3769   -1.1205    3.0663 C.ar    1  UNL1        0.0000
     34 H           5.6735   -1.5630    4.0081 H       1  UNL1        0.0000
     35 C           5.3206   -1.9004    1.9233 C.ar    1  UNL1        0.0000
     36 H           5.5713   -2.9514    1.9656 H       1  UNL1        0.0000
     37 C           4.9436   -1.3225    0.7226 C.ar    1  UNL1        0.0000
     38 H           4.8993   -1.9247   -0.1753 H       1  UNL1        0.0000
     39 C           4.6246    0.0240    0.6738 C.ar    1  UNL1        0.0000
     40 H           4.3288    0.4661   -0.2686 H       1  UNL1        0.0000
@<TRIPOS>BOND
     1    28    26    1
     2    29    26    1
     3    14    12    1
     4    26    27    1
     5    26    23    1
     6    25    23    1
     7    12    13    1
     8    12    15    1
     9    12     7    1
    10    23    24    1
    11    23     2    1
    12     7     2    1
    13     7     6    2
    14    40    39    1
    15    38    37    1
    16     2     5    1
    17     9     8    1
    18     4     3    1
    19    39    37   ar
    20    39    30   ar
    21     6     8    1
    22     6     1    1
    23    37    35   ar
    24     5     1    1
    25     5     3    1
    26     8    11    1
    27     8    10    1
    28     1    16    1
    29    20    19    1
    30    22    19    1
    31     3    30    1
    32    30    31   ar
    33    35    36    1
    34    35    33   ar
    35    19    16    1
    36    19    21    1
    37    16    17    1
    38    16    18    1
    39    31    33   ar
    40    31    32    1
    41    33    34    1
