@<TRIPOS>MOLECULE
1
 14 14 0 0 0
SMALL
GASTEIGER

@<TRIPOS>ATOM
      1 SI         -0.4734   11.7701    4.2988 Si      1  UNL1        0.0000
      2 C          -0.6131    9.7798    2.1980 C.ar    1  UNL1        0.0000
      3 C          -1.0832    8.6325    1.5847 C.ar    1  UNL1        0.0000
      4 C          -2.1062    7.9056    2.1690 C.ar    1  UNL1        0.0000
      5 C          -2.6544    8.3371    3.3660 C.ar    1  UNL1        0.0000
      6 C          -2.1750    9.4825    3.9740 C.ar    1  UNL1        0.0000
      7 C          -1.1450   10.2276    3.4031 C.ar    1  UNL1        0.0000
      8 H           0.3260   12.4574    3.2279 H       1  UNL1        0.0000
      9 H          -1.6758   12.6682    4.3455 H       1  UNL1        0.0000
     10 H           0.1831   10.3438    1.7320 H       1  UNL1        0.0000
     11 H          -0.6520    8.3034    0.6495 H       1  UNL1        0.0000
     12 H          -2.4748    7.0074    1.6946 H       1  UNL1        0.0000
     13 H          -3.4538    7.7749    3.8278 H       1  UNL1        0.0000
     14 H          -2.6062    9.8046    4.9126 H       1  UNL1        0.0000
@<TRIPOS>BOND
     1    11     3    1
     2     3     4   ar
     3     3     2   ar
     4    12     4    1
     5    10     2    1
     6     4     5   ar
     7     2     7   ar
     8     8     1    1
     9     5    13    1
    10     5     6   ar
    11     7     6   ar
    12     7     1    1
    13     6    14    1
    14     1     9    1
