@<TRIPOS>MOLECULE
1
 40 39 0 0 0
SMALL
GASTEIGER

@<TRIPOS>ATOM
      1 SI         -6.1821   11.0011    6.9996 Si      1  UNL1        0.0000
      2 SI         -5.9608    9.2912    8.7573 Si      1  UNL1        0.0000
      3 SI         -8.5165   11.6400    7.2713 Si      1  UNL1        0.0000
      4 SI         -4.8658   12.8132    7.9487 Si      1  UNL1        0.0000
      5 C          -4.1661    9.0696    9.4189 C.3     1  UNL1        0.0000
      6 C          -6.9818    9.7620   10.3098 C.3     1  UNL1        0.0000
      7 C          -6.5826    7.5242    8.3257 C.3     1  UNL1        0.0000
      8 C          -8.8217   12.6683    8.8603 C.3     1  UNL1        0.0000
      9 C          -9.2991   12.6976    5.8794 C.3     1  UNL1        0.0000
     10 C          -9.5993   10.0651    7.3587 C.3     1  UNL1        0.0000
     11 C          -5.3806   14.5915    7.4406 C.3     1  UNL1        0.0000
     12 C          -3.0190   12.6170    7.4453 C.3     1  UNL1        0.0000
     13 C          -4.8594   12.8735    9.8605 C.3     1  UNL1        0.0000
     14 H          -4.1632    8.9715   10.5006 H       1  UNL1        0.0000
     15 H          -3.6812    8.1861    9.0170 H       1  UNL1        0.0000
     16 H          -3.5414    9.9215    9.1740 H       1  UNL1        0.0000
     17 H          -6.8235    9.0498   11.1162 H       1  UNL1        0.0000
     18 H          -6.7058   10.7411   10.6843 H       1  UNL1        0.0000
     19 H          -8.0453    9.7790   10.0986 H       1  UNL1        0.0000
     20 H          -6.7982    6.9608    9.2300 H       1  UNL1        0.0000
     21 H          -7.4998    7.5590    7.7461 H       1  UNL1        0.0000
     22 H          -5.8564    6.9494    7.7600 H       1  UNL1        0.0000
     23 H          -9.8730   12.9151    8.9780 H       1  UNL1        0.0000
     24 H          -8.5119   12.1338    9.7497 H       1  UNL1        0.0000
     25 H          -8.2702   13.6025    8.8349 H       1  UNL1        0.0000
     26 H         -10.3693   12.8111    6.0359 H       1  UNL1        0.0000
     27 H          -8.8772   13.6966    5.8278 H       1  UNL1        0.0000
     28 H          -9.1659   12.2247    4.9128 H       1  UNL1        0.0000
     29 H         -10.6495   10.3061    7.5001 H       1  UNL1        0.0000
     30 H          -9.5168    9.5038    6.4336 H       1  UNL1        0.0000
     31 H          -9.3032    9.4085    8.1698 H       1  UNL1        0.0000
     32 H          -4.9279   15.3339    8.0935 H       1  UNL1        0.0000
     33 H          -5.0917   14.8393    6.4251 H       1  UNL1        0.0000
     34 H          -6.4567   14.7161    7.5138 H       1  UNL1        0.0000
     35 H          -2.4695   13.5485    7.5481 H       1  UNL1        0.0000
     36 H          -2.5215   11.8831    8.0719 H       1  UNL1        0.0000
     37 H          -2.9122   12.2886    6.4138 H       1  UNL1        0.0000
     38 H          -4.1962   13.6491   10.2352 H       1  UNL1        0.0000
     39 H          -5.8526   13.0849   10.2425 H       1  UNL1        0.0000
     40 H          -4.5349   11.9329   10.2906 H       1  UNL1        0.0000
@<TRIPOS>BOND
     1    28     9    1
     2    27     9    1
     3     9    26    1
     4     9     3    1
     5    37    12    1
     6    33    11    1
     7    30    10    1
     8     1     3    1
     9     1     4    1
    10     1     2    1
    11     3    10    1
    12     3     8    1
    13    10    29    1
    14    10    31    1
    15    11    34    1
    16    11     4    1
    17    11    32    1
    18    12    35    1
    19    12     4    1
    20    12    36    1
    21    21     7    1
    22    22     7    1
    23     4    13    1
    24     7     2    1
    25     7    20    1
    26     2     5    1
    27     2     6    1
    28    25     8    1
    29     8    23    1
    30     8    24    1
    31    15     5    1
    32    16     5    1
    33     5    14    1
    34    13    38    1
    35    13    39    1
    36    13    40    1
    37    19     6    1
    38     6    18    1
    39     6    17    1
