@<TRIPOS>MOLECULE
1
 52 51 0 0 0
SMALL
GASTEIGER

@<TRIPOS>ATOM
      1 SI          2.5042    0.1206    4.7427 Si      1  UNL1        0.0000
      2 SI          2.4740   -1.3045    1.9069 Si      1  UNL1        0.0000
      3 SI          2.1432    1.8726    2.1644 Si      1  UNL1        0.0000
      4 SI          4.9482    0.4971    2.8997 Si      1  UNL1        0.0000
      5 O           3.5348   -1.0705    5.1662 O.3     1  UNL1        0.0000
      6 C           3.8718   -1.6328    6.4137 C.3     1  UNL1        0.0000
      7 H           3.1407   -1.2954    7.1624 H       1  UNL1        0.0000
      8 C           3.8322   -3.1556    6.3101 C.3     1  UNL1        0.0000
      9 H           2.8595   -3.4924    5.9610 H       1  UNL1        0.0000
     10 H           4.0305   -3.5992    7.2824 H       1  UNL1        0.0000
     11 H           4.5841   -3.5021    5.6061 H       1  UNL1        0.0000
     12 C           5.2546   -1.1536    6.8430 C.3     1  UNL1        0.0000
     13 H           5.9990   -1.4359    6.1039 H       1  UNL1        0.0000
     14 H           5.5168   -1.5982    7.7994 H       1  UNL1        0.0000
     15 H           5.2555   -0.0736    6.9485 H       1  UNL1        0.0000
     16 C           3.0072    0.2810    2.8883 C.3     1  UNL1        0.0000
     17 C           0.5907   -1.3214    1.5824 C.3     1  UNL1        0.0000
     18 H           0.2887   -0.5422    0.8945 H       1  UNL1        0.0000
     19 H           0.0263   -1.1861    2.4986 H       1  UNL1        0.0000
     20 H           0.2887   -2.2717    1.1524 H       1  UNL1        0.0000
     21 C           2.7836   -2.9628    2.8031 C.3     1  UNL1        0.0000
     22 H           2.1412   -3.0595    3.6711 H       1  UNL1        0.0000
     23 H           3.8062   -3.0645    3.1391 H       1  UNL1        0.0000
     24 H           2.5694   -3.7994    2.1438 H       1  UNL1        0.0000
     25 C           3.3398   -1.4313    0.2080 C.3     1  UNL1        0.0000
     26 H           2.9120   -2.2422   -0.3740 H       1  UNL1        0.0000
     27 H           4.4009   -1.6284    0.3080 H       1  UNL1        0.0000
     28 H           3.2287   -0.5228   -0.3702 H       1  UNL1        0.0000
     29 C           5.9082   -1.1533    3.0267 C.3     1  UNL1        0.0000
     30 H           6.9664   -0.9619    3.1822 H       1  UNL1        0.0000
     31 H           5.8162   -1.7503    2.1261 H       1  UNL1        0.0000
     32 H           5.5552   -1.7503    3.8566 H       1  UNL1        0.0000
     33 C           5.5146    1.6172    4.3462 C.3     1  UNL1        0.0000
     34 H           4.6942    1.9100    4.9945 H       1  UNL1        0.0000
     35 H           5.9790    2.5276    3.9797 H       1  UNL1        0.0000
     36 H           6.2517    1.1126    4.9625 H       1  UNL1        0.0000
     37 C           5.6407    1.3101    1.3145 C.3     1  UNL1        0.0000
     38 H           6.7256    1.3190    1.3577 H       1  UNL1        0.0000
     39 H           5.3141    2.3379    1.2117 H       1  UNL1        0.0000
     40 H           5.3593    0.7753    0.4158 H       1  UNL1        0.0000
     41 C           0.2395    1.8954    2.3451 C.3     1  UNL1        0.0000
     42 H          -0.0803    2.8538    2.7397 H       1  UNL1        0.0000
     43 H          -0.1160    1.1368    3.0288 H       1  UNL1        0.0000
     44 H          -0.2628    1.7534    1.3937 H       1  UNL1        0.0000
     45 C           2.3912    2.0953    0.2786 C.3     1  UNL1        0.0000
     46 H           1.9994    3.0619   -0.0247 H       1  UNL1        0.0000
     47 H           1.8491    1.3412   -0.2822 H       1  UNL1        0.0000
     48 H           3.4268    2.0565   -0.0294 H       1  UNL1        0.0000
     49 C           2.8172    3.4066    3.0700 C.3     1  UNL1        0.0000
     50 H           2.3444    4.3105    2.6987 H       1  UNL1        0.0000
     51 H           3.8867    3.5263    2.9468 H       1  UNL1        0.0000
     52 H           2.6055    3.3403    4.1348 H       1  UNL1        0.0000
@<TRIPOS>BOND
     1    26    25    1
     2    28    25    1
     3    47    45    1
     4    48    45    1
     5    46    45    1
     6    25    27    1
     7    25     2    1
     8    45     3    1
     9    40    37    1
    10    18    17    1
    11    20    17    1
    12    39    37    1
    13    37    38    1
    14    37     4    1
    15    44    41    1
    16    17     2    1
    17    17    19    1
    18     2    21    1
    19     2    16    1
    20    31    29    1
    21    24    21    1
    22     3    41    1
    23     3    16    1
    24     3    49    1
    25    41    42    1
    26    41    43    1
    27    50    49    1
    28    21    23    1
    29    21    22    1
    30    16     4    1
    31    16     1    1
    32     4    29    1
    33     4    33    1
    34    51    49    1
    35    29    30    1
    36    29    32    1
    37    49    52    1
    38    35    33    1
    39    33    36    1
    40    33    34    1
    41     1     5    1
    42     5     6    1
    43    11     8    1
    44     9     8    1
    45    13    12    1
    46     8     6    1
    47     8    10    1
    48     6    12    1
    49     6     7    1
    50    12    15    1
    51    12    14    1
