@<TRIPOS>MOLECULE
1
 34 36 0 0 0
SMALL
GASTEIGER

@<TRIPOS>ATOM
      1 SI          5.2200    5.7890    4.5969 Si      1  UNL1        0.0000
      2 C           5.9654    7.3546    5.4370 C.ar    1  UNL1        0.0000
      3 C           5.3819    8.5783    5.1249 C.ar    1  UNL1        0.0000
      4 C           5.8081    9.7550    5.7114 C.ar    1  UNL1        0.0000
      5 C           6.8344    9.7282    6.6419 C.ar    1  UNL1        0.0000
      6 C           7.4190    8.5189    6.9760 C.ar    1  UNL1        0.0000
      7 C           6.9855    7.3470    6.3784 C.ar    1  UNL1        0.0000
      8 C           6.0648    5.8383    2.8684 C.ar    1  UNL1        0.0000
      9 C           5.7190    6.8791    2.0121 C.ar    1  UNL1        0.0000
     10 C           6.2368    6.9655    0.7333 C.ar    1  UNL1        0.0000
     11 C           7.1077    5.9903    0.2735 C.ar    1  UNL1        0.0000
     12 C           7.4445    4.9338    1.1016 C.ar    1  UNL1        0.0000
     13 C           6.9260    4.8631    2.3840 C.ar    1  UNL1        0.0000
     14 C           5.9302    4.2762    5.5324 C.ar    1  UNL1        0.0000
     15 C           5.0757    3.3790    6.1586 C.ar    1  UNL1        0.0000
     16 C           5.5587    2.2811    6.8480 C.ar    1  UNL1        0.0000
     17 C           6.9237    2.0608    6.9214 C.ar    1  UNL1        0.0000
     18 C           7.7924    2.9436    6.3024 C.ar    1  UNL1        0.0000
     19 C           7.2963    4.0387    5.6162 C.ar    1  UNL1        0.0000
     20 H           4.5653    8.5991    4.4074 H       1  UNL1        0.0000
     21 H           5.3419   10.6965    5.4501 H       1  UNL1        0.0000
     22 H           7.1716   10.6437    7.1080 H       1  UNL1        0.0000
     23 H           8.2138    8.4895    7.7093 H       1  UNL1        0.0000
     24 H           7.4386    6.4093    6.6652 H       1  UNL1        0.0000
     25 H           5.0185    7.6315    2.3579 H       1  UNL1        0.0000
     26 H           5.9592    7.7877    0.0867 H       1  UNL1        0.0000
     27 H           7.5146    6.0503   -0.7264 H       1  UNL1        0.0000
     28 H           8.1140    4.1621    0.7459 H       1  UNL1        0.0000
     29 H           7.1952    4.0284    3.0163 H       1  UNL1        0.0000
     30 H           4.0075    3.5504    6.1004 H       1  UNL1        0.0000
     31 H           4.8742    1.5950    7.3289 H       1  UNL1        0.0000
     32 H           7.3088    1.2049    7.4580 H       1  UNL1        0.0000
     33 H           8.8598    2.7762    6.3561 H       1  UNL1        0.0000
     34 H           7.9841    4.7200    5.1354 H       1  UNL1        0.0000
@<TRIPOS>BOND
     1    27    11    1
     2    26    10    1
     3    11    10   ar
     4    11    12   ar
     5    10     9   ar
     6    28    12    1
     7    12    13   ar
     8     9    25    1
     9     9     8   ar
    10    13     8   ar
    11    13    29    1
    12     8     1    1
    13    20     3    1
    14     1     2    1
    15     1    14    1
    16     3     2   ar
    17     3     4   ar
    18    34    19    1
    19     2     7   ar
    20    21     4    1
    21    14    19   ar
    22    14    15   ar
    23    19    18   ar
    24     4     5   ar
    25    30    15    1
    26    15    16   ar
    27    18    33    1
    28    18    17   ar
    29     7    24    1
    30     7     6   ar
    31     5     6   ar
    32     5    22    1
    33    16    17   ar
    34    16    31    1
    35    17    32    1
    36     6    23    1
