@<TRIPOS>MOLECULE
1
 24 25 0 0 0
SMALL
GASTEIGER

@<TRIPOS>ATOM
      1 SI          3.4015    9.3132   10.6074 Si      1  UNL1        0.0000
      2 F           1.9471    9.2772    9.8008 F       1  UNL1        0.0000
      3 C           4.5790    9.7764    9.1523 C.ar    1  UNL1        0.0000
      4 C           5.6326    8.9464    8.7830 C.ar    1  UNL1        0.0000
      5 H           5.7793    8.0119    9.3066 H       1  UNL1        0.0000
      6 C           6.4845    9.2833    7.7454 C.ar    1  UNL1        0.0000
      7 H           7.2947    8.6205    7.4748 H       1  UNL1        0.0000
      8 C           6.2953   10.4652    7.0502 C.ar    1  UNL1        0.0000
      9 H           6.9562   10.7293    6.2370 H       1  UNL1        0.0000
     10 C           5.2501   11.3035    7.4014 C.ar    1  UNL1        0.0000
     11 H           5.0940   12.2264    6.8612 H       1  UNL1        0.0000
     12 C           4.4077   10.9627    8.4448 C.ar    1  UNL1        0.0000
     13 H           3.6035   11.6254    8.7233 H       1  UNL1        0.0000
     14 C           3.6793    7.4185   10.7664 C.ar    1  UNL1        0.0000
     15 C           4.4700    6.8655   11.7663 C.ar    1  UNL1        0.0000
     16 H           4.9168    7.5198   12.4995 H       1  UNL1        0.0000
     17 C           4.6860    5.5014   11.8469 C.ar    1  UNL1        0.0000
     18 H           5.3071    5.0951   12.6344 H       1  UNL1        0.0000
     19 C           4.1030    4.6541   10.9201 C.ar    1  UNL1        0.0000
     20 H           4.2667    3.5874   10.9798 H       1  UNL1        0.0000
     21 C           3.3077    5.1845    9.9188 C.ar    1  UNL1        0.0000
     22 H           2.8478    4.5294    9.1923 H       1  UNL1        0.0000
     23 C           3.1028    6.5508    9.8448 C.ar    1  UNL1        0.0000
     24 H           2.4835    6.9559    9.0594 H       1  UNL1        0.0000
@<TRIPOS>BOND
     1     9     8    1
     2    11    10    1
     3     8    10   ar
     4     8     6   ar
     5    10    12   ar
     6     7     6    1
     7     6     4   ar
     8    12    13    1
     9    12     3   ar
    10     4     3   ar
    11     4     5    1
    12    24    23    1
    13     3     1    1
    14    22    21    1
    15     2     1    1
    16    23    21   ar
    17    23    14   ar
    18    21    19   ar
    19     1    14    1
    20    14    15   ar
    21    19    20    1
    22    19    17   ar
    23    15    17   ar
    24    15    16    1
    25    17    18    1
