@<TRIPOS>MOLECULE
1
 13 12 0 0 0
SMALL
GASTEIGER

@<TRIPOS>ATOM
      1 SI          6.3603   11.7694   22.7086 Si      1  UNL1        0.0000
      2 C           4.5154   12.2811   22.8550 C.3     1  UNL1        0.0000
      3 C           7.2461   12.0064   24.3837 C.3     1  UNL1        0.0000
      4 C           7.1574   12.8866   21.3665 C.3     1  UNL1        0.0000
      5 H           4.0044   12.2168   21.8977 H       1  UNL1        0.0000
      6 H           3.9855   11.6402   23.5527 H       1  UNL1        0.0000
      7 H           4.4177   13.3034   23.2080 H       1  UNL1        0.0000
      8 H           6.7818   11.3954   25.1525 H       1  UNL1        0.0000
      9 H           7.2175   13.0402   24.7171 H       1  UNL1        0.0000
     10 H           8.2880   11.7078   24.3123 H       1  UNL1        0.0000
     11 H           7.1511   13.9298   21.6682 H       1  UNL1        0.0000
     12 H           6.6257   12.8177   20.4209 H       1  UNL1        0.0000
     13 H           8.1890   12.6029   21.1833 H       1  UNL1        0.0000
@<TRIPOS>BOND
     1    12     4    1
     2    13     4    1
     3     4    11    1
     4     4     1    1
     5     5     2    1
     6     1     2    1
     7     1     3    1
     8     2     7    1
     9     2     6    1
    10    10     3    1
    11     3     9    1
    12     3     8    1
