@<TRIPOS>MOLECULE
1
 34 36 0 0 0
SMALL
GASTEIGER

@<TRIPOS>ATOM
      1 SI          2.9336    3.6012    3.2866 Si      1  UNL1        0.0000
      2 C           1.0918    3.6515    3.8663 C.ar    1  UNL1        0.0000
      3 C           0.5082    4.8222    4.3494 C.ar    1  UNL1        0.0000
      4 C          -0.8408    4.8868    4.6480 C.ar    1  UNL1        0.0000
      5 C          -1.6461    3.7760    4.4613 C.ar    1  UNL1        0.0000
      6 C          -1.0869    2.6025    3.9828 C.ar    1  UNL1        0.0000
      7 C           0.2633    2.5456    3.6891 C.ar    1  UNL1        0.0000
      8 C           3.5731    1.8686    3.8755 C.ar    1  UNL1        0.0000
      9 C           3.2870    0.7513    3.0905 C.ar    1  UNL1        0.0000
     10 C           3.7238   -0.5112    3.4481 C.ar    1  UNL1        0.0000
     11 C           4.4759   -0.6855    4.5988 C.ar    1  UNL1        0.0000
     12 C           4.7871    0.4125    5.3810 C.ar    1  UNL1        0.0000
     13 C           4.3404    1.6724    5.0204 C.ar    1  UNL1        0.0000
     14 C           3.7905    4.8538    4.4888 C.ar    1  UNL1        0.0000
     15 C           4.7378    5.7568    4.0187 C.ar    1  UNL1        0.0000
     16 C           5.3547    6.6628    4.8637 C.ar    1  UNL1        0.0000
     17 C           5.0307    6.6831    6.2096 C.ar    1  UNL1        0.0000
     18 C           4.0863    5.7956    6.6982 C.ar    1  UNL1        0.0000
     19 C           3.4749    4.8947    5.8446 C.ar    1  UNL1        0.0000
     20 H           5.3800    0.2866    6.2762 H       1  UNL1        0.0000
     21 H           6.0877    7.3561    4.4748 H       1  UNL1        0.0000
     22 H           1.1250    5.6976    4.5021 H       1  UNL1        0.0000
     23 H          -1.2673    5.8063    5.0248 H       1  UNL1        0.0000
     24 H          -2.7014    3.8234    4.6898 H       1  UNL1        0.0000
     25 H          -1.7085    1.7291    3.8400 H       1  UNL1        0.0000
     26 H           0.6869    1.6200    3.3248 H       1  UNL1        0.0000
     27 H           2.7134    0.8781    2.1767 H       1  UNL1        0.0000
     28 H           3.4834   -1.3640    2.8279 H       1  UNL1        0.0000
     29 H           4.8209   -1.6705    4.8788 H       1  UNL1        0.0000
     30 H           4.5958    2.5214    5.6378 H       1  UNL1        0.0000
     31 H           4.9920    5.7515    2.9649 H       1  UNL1        0.0000
     32 H           5.5093    7.3888    6.8735 H       1  UNL1        0.0000
     33 H           3.8263    5.8086    7.7475 H       1  UNL1        0.0000
     34 H           2.7321    4.2115    6.2323 H       1  UNL1        0.0000
@<TRIPOS>BOND
     1    27     9    1
     2    28    10    1
     3    31    15    1
     4     9    10   ar
     5     9     8   ar
     6     1     2    1
     7     1     8    1
     8     1    14    1
     9    26     7    1
    10    10    11   ar
    11     7     2   ar
    12     7     6   ar
    13    25     6    1
    14     2     3   ar
    15     8    13   ar
    16     6     5   ar
    17    15    14   ar
    18    15    16   ar
    19     3    22    1
    20     3     4   ar
    21     5     4   ar
    22     5    24    1
    23    21    16    1
    24    14    19   ar
    25    11    29    1
    26    11    12   ar
    27     4    23    1
    28    16    17   ar
    29    13    12   ar
    30    13    30    1
    31    12    20    1
    32    19    34    1
    33    19    18   ar
    34    17    18   ar
    35    17    32    1
    36    18    33    1
