@<TRIPOS>MOLECULE
1
 10 9 0 0 0
SMALL
GASTEIGER

@<TRIPOS>ATOM
      1 SI          3.4013    5.9064    1.0124 Si      1  UNL1        0.0000
      2 CL          4.1031    7.3697    2.3368 Cl      1  UNL1        0.0000
      3 C           4.8980    5.6263   -0.1645 C.3     1  UNL1        0.0000
      4 H           5.0248    6.5046   -0.7888 H       1  UNL1        0.0000
      5 H           4.7429    4.7713   -0.8119 H       1  UNL1        0.0000
      6 H           5.8198    5.4783    0.3868 H       1  UNL1        0.0000
      7 C           2.0989    6.8807   -0.0212 C.3     1  UNL1        0.0000
      8 H           2.5812    7.7337   -0.4894 H       1  UNL1        0.0000
      9 H           1.2817    7.2627    0.5837 H       1  UNL1        0.0000
     10 H           1.6794    6.2588   -0.8043 H       1  UNL1        0.0000
@<TRIPOS>BOND
     1     5     3    1
     2    10     7    1
     3     4     3    1
     4     8     7    1
     5     3     6    1
     6     3     1    1
     7     7     9    1
     8     7     1    1
     9     1     2    1
