@<TRIPOS>MOLECULE
1
 24 25 0 0 0
SMALL
GASTEIGER

@<TRIPOS>ATOM
      1 SI          1.1144    2.0931    1.9969 Si      1  UNL1        0.0000
      2 C           2.4778    0.8348    1.5863 C.ar    1  UNL1        0.0000
      3 C           3.7511    0.8916    2.1393 C.ar    1  UNL1        0.0000
      4 C           4.7015   -0.0713    1.8527 C.ar    1  UNL1        0.0000
      5 C           4.3913   -1.1186    1.0029 C.ar    1  UNL1        0.0000
      6 C           3.1252   -1.1943    0.4471 C.ar    1  UNL1        0.0000
      7 C           2.1821   -0.2269    0.7396 C.ar    1  UNL1        0.0000
      8 C           0.1927    1.2968    3.4617 C.ar    1  UNL1        0.0000
      9 C           0.8044    0.3404    4.2637 C.ar    1  UNL1        0.0000
     10 C           0.1612   -0.1873    5.3690 C.ar    1  UNL1        0.0000
     11 C          -1.1183    0.2296    5.6927 C.ar    1  UNL1        0.0000
     12 C          -1.7514    1.1696    4.8964 C.ar    1  UNL1        0.0000
     13 C          -1.0977    1.6938    3.7965 C.ar    1  UNL1        0.0000
     14 H           0.1528    1.9150    0.8802 H       1  UNL1        0.0000
     15 H           4.0115    1.7044    2.8024 H       1  UNL1        0.0000
     16 H           5.6857   -0.0019    2.2946 H       1  UNL1        0.0000
     17 H           5.1308   -1.8737    0.7756 H       1  UNL1        0.0000
     18 H           2.8732   -2.0114   -0.2147 H       1  UNL1        0.0000
     19 H           1.1957   -0.2944    0.3035 H       1  UNL1        0.0000
     20 H           1.7987   -0.0020    4.0123 H       1  UNL1        0.0000
     21 H           0.6585   -0.9284    5.9798 H       1  UNL1        0.0000
     22 H          -1.6235   -0.1792    6.5567 H       1  UNL1        0.0000
     23 H          -2.7546    1.4946    5.1378 H       1  UNL1        0.0000
     24 H          -1.5964    2.4303    3.1801 H       1  UNL1        0.0000
@<TRIPOS>BOND
     1    18     6    1
     2    19     7    1
     3     6     7   ar
     4     6     5   ar
     5     7     2   ar
     6    17     5    1
     7    14     1    1
     8     5     4   ar
     9     2     1    1
    10     2     3   ar
    11     4     3   ar
    12     4    16    1
    13     1     8    1
    14     3    15    1
    15    24    13    1
    16     8    13   ar
    17     8     9   ar
    18    13    12   ar
    19    20     9    1
    20     9    10   ar
    21    12    23    1
    22    12    11   ar
    23    10    11   ar
    24    10    21    1
    25    11    22    1
