@<TRIPOS>MOLECULE
1
 24 25 0 0 0
SMALL
GASTEIGER

@<TRIPOS>ATOM
      1 SI          3.9503    4.7608    4.1025 Si      1  UNL1        0.0000
      2 C           4.1505    3.6303    5.6208 C.ar    1  UNL1        0.0000
      3 C           5.0485    4.0104    6.6128 C.ar    1  UNL1        0.0000
      4 C           5.2964    3.2014    7.7052 C.ar    1  UNL1        0.0000
      5 C           4.6492    1.9828    7.8262 C.ar    1  UNL1        0.0000
      6 C           3.7547    1.5873    6.8484 C.ar    1  UNL1        0.0000
      7 C           3.5110    2.4060    5.7600 C.ar    1  UNL1        0.0000
      8 C           5.5117    4.3885    3.0757 C.ar    1  UNL1        0.0000
      9 C           6.2625    3.2398    3.2954 C.ar    1  UNL1        0.0000
     10 C           7.3460    2.9265    2.4938 C.ar    1  UNL1        0.0000
     11 C           7.7056    3.7645    1.4529 C.ar    1  UNL1        0.0000
     12 C           6.9819    4.9244    1.2311 C.ar    1  UNL1        0.0000
     13 C           5.9000    5.2270    2.0362 C.ar    1  UNL1        0.0000
     14 H           4.2355    6.1165    4.6495 H       1  UNL1        0.0000
     15 H           5.5647    4.9553    6.5201 H       1  UNL1        0.0000
     16 H           5.9994    3.5175    8.4636 H       1  UNL1        0.0000
     17 H           4.8440    1.3459    8.6776 H       1  UNL1        0.0000
     18 H           3.2433    0.6384    6.9295 H       1  UNL1        0.0000
     19 H           2.8033    2.0800    5.0108 H       1  UNL1        0.0000
     20 H           5.9966    2.5820    4.1112 H       1  UNL1        0.0000
     21 H           7.9130    2.0249    2.6808 H       1  UNL1        0.0000
     22 H           8.5468    3.5188    0.8202 H       1  UNL1        0.0000
     23 H           7.2622    5.5905    0.4260 H       1  UNL1        0.0000
     24 H           5.3369    6.1316    1.8535 H       1  UNL1        0.0000
@<TRIPOS>BOND
     1    23    12    1
     2    22    11    1
     3    12    11   ar
     4    12    13   ar
     5    11    10   ar
     6    24    13    1
     7    13     8   ar
     8    10    21    1
     9    10     9   ar
    10     8     9   ar
    11     8     1    1
    12     9    20    1
    13     1    14    1
    14     1     2    1
    15    19     7    1
    16     2     7   ar
    17     2     3   ar
    18     7     6   ar
    19    15     3    1
    20     3     4   ar
    21     6    18    1
    22     6     5   ar
    23     4     5   ar
    24     4    16    1
    25     5    17    1
