@<TRIPOS>MOLECULE
1
 32 33 0 0 0
SMALL
GASTEIGER

@<TRIPOS>ATOM
      1 SI         -1.8540    0.9400    4.2942 Si      1  UNL1        0.0000
      2 N          -2.7974    2.0779    5.2826 N.pl3   1  UNL1        0.0000
      3 C          -1.5972   -0.6183    5.4084 C.3     1  UNL1        0.0000
      4 C          -3.0238    0.2972    2.9139 C.3     1  UNL1        0.0000
      5 C          -2.2568    2.9037    6.2564 C.ar    1  UNL1        0.0000
      6 C          -3.0095    3.9630    6.7776 C.ar    1  UNL1        0.0000
      7 C          -2.4771    4.8096    7.7294 C.ar    1  UNL1        0.0000
      8 C          -1.1824    4.6295    8.1876 C.ar    1  UNL1        0.0000
      9 C          -0.4274    3.5883    7.6745 C.ar    1  UNL1        0.0000
     10 C          -0.9541    2.7375    6.7223 C.ar    1  UNL1        0.0000
     11 C          -4.1931    1.8841    5.3621 C.ar    1  UNL1        0.0000
     12 C          -4.7450    1.3683    6.5328 C.ar    1  UNL1        0.0000
     13 C          -6.1056    1.1537    6.6315 C.ar    1  UNL1        0.0000
     14 C          -6.9374    1.4482    5.5630 C.ar    1  UNL1        0.0000
     15 C          -6.3956    1.9642    4.3990 C.ar    1  UNL1        0.0000
     16 C          -5.0333    2.1840    4.2982 C.ar    1  UNL1        0.0000
     17 H          -2.5519   -1.0616    5.6795 H       1  UNL1        0.0000
     18 H          -1.0177   -1.3734    4.8879 H       1  UNL1        0.0000
     19 H          -1.0740   -0.3848    6.3298 H       1  UNL1        0.0000
     20 H          -3.2477    1.0483    2.1679 H       1  UNL1        0.0000
     21 H          -2.5378   -0.5266    2.4039 H       1  UNL1        0.0000
     22 H          -3.9630   -0.0674    3.3147 H       1  UNL1        0.0000
     23 H          -4.0207    4.1178    6.4286 H       1  UNL1        0.0000
     24 H          -3.0796    5.6198    8.1143 H       1  UNL1        0.0000
     25 H          -0.7702    5.2900    8.9352 H       1  UNL1        0.0000
     26 H           0.5819    3.4285    8.0257 H       1  UNL1        0.0000
     27 H          -0.3621    1.9278    6.3337 H       1  UNL1        0.0000
     28 H          -4.0901    1.1404    7.3611 H       1  UNL1        0.0000
     29 H          -6.5197    0.7495    7.5438 H       1  UNL1        0.0000
     30 H          -8.0010    1.2782    5.6394 H       1  UNL1        0.0000
     31 H          -7.0382    2.2032    3.5637 H       1  UNL1        0.0000
     32 H          -4.6158    2.5961    3.3951 H       1  UNL1        0.0000
@<TRIPOS>BOND
     1    20     4    1
     2    21     4    1
     3     4    22    1
     4     4     1    1
     5    32    16    1
     6    31    15    1
     7     1     2    1
     8     1     3    1
     9    16    15   ar
    10    16    11   ar
    11    15    14   ar
    12    18     3    1
    13     2    11    1
    14     2     5    1
    15    11    12   ar
    16     3    17    1
    17     3    19    1
    18    14    30    1
    19    14    13   ar
    20     5    10   ar
    21     5     6   ar
    22    27    10    1
    23    23     6    1
    24    12    13   ar
    25    12    28    1
    26    13    29    1
    27    10     9   ar
    28     6     7   ar
    29     9    26    1
    30     9     8   ar
    31     7    24    1
    32     7     8   ar
    33     8    25    1
