@<TRIPOS>MOLECULE
1
 39 39 0 0 0
SMALL
GASTEIGER

@<TRIPOS>ATOM
      1 SI          2.3415    1.4954    4.9202 Si      1  UNL1        0.0000
      2 C           3.5298    2.7495    4.0863 C.ar    1  UNL1        0.0000
      3 C           4.0571    2.5199    2.8072 C.ar    1  UNL1        0.0000
      4 C           4.8628    3.4785    2.2156 C.ar    1  UNL1        0.0000
      5 H           5.2698    3.3100    1.2289 H       1  UNL1        0.0000
      6 C           5.1653    4.6705    2.8600 C.ar    1  UNL1        0.0000
      7 C           4.6887    4.8636    4.1474 C.ar    1  UNL1        0.0000
      8 H           4.9407    5.7731    4.6716 H       1  UNL1        0.0000
      9 C           3.8955    3.9135    4.7711 C.ar    1  UNL1        0.0000
     10 C           3.7803    1.1994    2.1293 C.3     1  UNL1        0.0000
     11 H           2.7533    0.9019    2.3531 H       1  UNL1        0.0000
     12 C           4.7116    0.1355    2.7178 C.3     1  UNL1        0.0000
     13 H           5.7499    0.3817    2.5008 H       1  UNL1        0.0000
     14 H           4.4857   -0.8384    2.2897 H       1  UNL1        0.0000
     15 H           4.5834    0.0784    3.7964 H       1  UNL1        0.0000
     16 C           3.9240    1.2292    0.6083 C.3     1  UNL1        0.0000
     17 H           3.3675    2.0625    0.1836 H       1  UNL1        0.0000
     18 H           3.5272    0.3062    0.1907 H       1  UNL1        0.0000
     19 H           4.9675    1.3110    0.3093 H       1  UNL1        0.0000
     20 C           6.0315    5.7062    2.1830 C.3     1  UNL1        0.0000
     21 H           6.2070    5.3835    1.1491 H       1  UNL1        0.0000
     22 C           7.3883    5.8026    2.8849 C.3     1  UNL1        0.0000
     23 H           7.2623    6.1262    3.9152 H       1  UNL1        0.0000
     24 H           8.0324    6.5160    2.3741 H       1  UNL1        0.0000
     25 H           7.8792    4.8319    2.8904 H       1  UNL1        0.0000
     26 C           5.3516    7.0765    2.1448 C.3     1  UNL1        0.0000
     27 H           4.3699    7.0058    1.6806 H       1  UNL1        0.0000
     28 H           5.9530    7.7810    1.5732 H       1  UNL1        0.0000
     29 H           5.2252    7.4736    3.1486 H       1  UNL1        0.0000
     30 C           3.4188    4.1511    6.1856 C.3     1  UNL1        0.0000
     31 H           3.0154    3.2068    6.5639 H       1  UNL1        0.0000
     32 C           4.5668    4.5691    7.1076 C.3     1  UNL1        0.0000
     33 H           5.3997    3.8772    7.0080 H       1  UNL1        0.0000
     34 H           4.2338    4.5642    8.1435 H       1  UNL1        0.0000
     35 H           4.9185    5.5708    6.8741 H       1  UNL1        0.0000
     36 C           2.2949    5.1878    6.2165 C.3     1  UNL1        0.0000
     37 H           2.6046    6.1057    5.7213 H       1  UNL1        0.0000
     38 H           2.0252    5.4252    7.2436 H       1  UNL1        0.0000
     39 H           1.4134    4.7944    5.7163 H       1  UNL1        0.0000
@<TRIPOS>BOND
     1    17    16    1
     2    18    16    1
     3    19    16    1
     4    16    10    1
     5    21    20    1
     6     5     4    1
     7    28    26    1
     8    27    26    1
     9    10    11    1
    10    10    12    1
    11    10     3    1
    12    26    20    1
    13    26    29    1
    14    20     6    1
    15    20    22    1
    16     4     3   ar
    17     4     6   ar
    18    14    12    1
    19    24    22    1
    20    13    12    1
    21    12    15    1
    22     3     2   ar
    23     6     7   ar
    24    22    25    1
    25    22    23    1
    26     2     9   ar
    27     2     1    1
    28     7     8    1
    29     7     9   ar
    30     9    30    1
    31    39    36    1
    32    37    36    1
    33    30    36    1
    34    30    31    1
    35    30    32    1
    36    36    38    1
    37    35    32    1
    38    33    32    1
    39    32    34    1
