@<TRIPOS>MOLECULE
1
 13 12 0 0 0
SMALL
GASTEIGER

@<TRIPOS>ATOM
      1 SI          4.3020    5.0293    1.1587 Si      1  UNL1        0.0000
      2 C           3.3637    6.5869    0.4993 C.3     1  UNL1        0.0000
      3 H           4.0630    7.2682    0.0249 H       1  UNL1        0.0000
      4 H           2.8560    7.1352    1.2868 H       1  UNL1        0.0000
      5 H           2.6185    6.3084   -0.2387 H       1  UNL1        0.0000
      6 C           4.9564    4.2546   -0.4883 C.3     1  UNL1        0.0000
      7 H           5.4301    5.0150   -1.1011 H       1  UNL1        0.0000
      8 H           4.1528    3.8161   -1.0710 H       1  UNL1        0.0000
      9 H           5.6902    3.4774   -0.3007 H       1  UNL1        0.0000
     10 C           5.9091    5.7805    1.9436 C.3     1  UNL1        0.0000
     11 H           6.5553    6.1499    1.1540 H       1  UNL1        0.0000
     12 H           6.4723    5.0437    2.5078 H       1  UNL1        0.0000
     13 H           5.6932    6.6142    2.6032 H       1  UNL1        0.0000
@<TRIPOS>BOND
     1     7     6    1
     2     8     6    1
     3     6     9    1
     4     6     1    1
     5     5     2    1
     6     3     2    1
     7     2     1    1
     8     2     4    1
     9    11    10    1
    10     1    10    1
    11    10    12    1
    12    10    13    1
