@<TRIPOS>MOLECULE
1
 27 27 0 0 0
SMALL
GASTEIGER

@<TRIPOS>ATOM
      1 SI          3.5650    2.3908    2.7267 Si      1  UNL1        0.0000
      2 C           4.6655    0.9539    3.5457 C.3     1  UNL1        0.0000
      3 C           4.8387   -0.1458    2.4903 C.3     1  UNL1        0.0000
      4 C           6.0512    1.5239    3.8679 C.3     1  UNL1        0.0000
      5 C           4.0727    0.3019    4.7972 C.3     1  UNL1        0.0000
      6 C           2.7401    3.5171    4.1393 C.3     1  UNL1        0.0000
      7 C           2.2056    4.7821    3.4557 C.3     1  UNL1        0.0000
      8 C           3.7231    3.9583    5.2269 C.3     1  UNL1        0.0000
      9 C           1.5505    2.7896    4.7739 C.3     1  UNL1        0.0000
     10 H           3.8812   -0.5880    2.2228 H       1  UNL1        0.0000
     11 H           5.4759   -0.9379    2.8813 H       1  UNL1        0.0000
     12 H           5.3030    0.2396    1.5845 H       1  UNL1        0.0000
     13 H           6.0010    2.2891    4.6370 H       1  UNL1        0.0000
     14 H           6.5051    1.9592    2.9799 H       1  UNL1        0.0000
     15 H           6.7061    0.7303    4.2247 H       1  UNL1        0.0000
     16 H           3.9956    1.0033    5.6222 H       1  UNL1        0.0000
     17 H           4.7112   -0.5190    5.1223 H       1  UNL1        0.0000
     18 H           3.0861   -0.1060    4.5894 H       1  UNL1        0.0000
     19 H           1.4782    4.5402    2.6833 H       1  UNL1        0.0000
     20 H           3.0108    5.3549    3.0005 H       1  UNL1        0.0000
     21 H           1.7146    5.4203    4.1892 H       1  UNL1        0.0000
     22 H           4.0882    3.1177    5.8090 H       1  UNL1        0.0000
     23 H           3.2309    4.6464    5.9133 H       1  UNL1        0.0000
     24 H           4.5745    4.4750    4.7893 H       1  UNL1        0.0000
     25 H           1.8633    1.9075    5.3231 H       1  UNL1        0.0000
     26 H           0.8360    2.4852    4.0119 H       1  UNL1        0.0000
     27 H           1.0376    3.4533    5.4686 H       1  UNL1        0.0000
@<TRIPOS>BOND
     1    12     3    1
     2    10     3    1
     3     3    11    1
     4     3     2    1
     5    19     7    1
     6     1     2    1
     7     1     6    1
     8    14     4    1
     9    20     7    1
    10     7     6    1
    11     7    21    1
    12     2     4    1
    13     2     5    1
    14     4    15    1
    15     4    13    1
    16    26     9    1
    17     6     9    1
    18     6     8    1
    19    18     5    1
    20     9    25    1
    21     9    27    1
    22    24     8    1
    23     5    17    1
    24     5    16    1
    25     8    22    1
    26     8    23    1
    27     1     7    0
