@<TRIPOS>MOLECULE
1
 13 12 0 0 0
SMALL
GASTEIGER

@<TRIPOS>ATOM
      1 SI          2.1002    3.9551    5.1959 Si      1  UNL1        0.0000
      2 C           1.4459    5.7412    4.7934 C.3     1  UNL1        0.0000
      3 C           3.9745    4.0974    4.7489 C.3     1  UNL1        0.0000
      4 C           2.1444    3.9587    7.1393 C.3     1  UNL1        0.0000
      5 H           1.2936    5.8782    3.7280 H       1  UNL1        0.0000
      6 H           2.1761    6.4763    5.1163 H       1  UNL1        0.0000
      7 H           0.5132    5.9782    5.2958 H       1  UNL1        0.0000
      8 H           4.4217    4.9469    5.2557 H       1  UNL1        0.0000
      9 H           4.5190    3.2084    5.0442 H       1  UNL1        0.0000
     10 H           4.1173    4.2316    3.6833 H       1  UNL1        0.0000
     11 H           2.4504    2.9943    7.5310 H       1  UNL1        0.0000
     12 H           2.8636    4.6947    7.4843 H       1  UNL1        0.0000
     13 H           1.1896    4.2124    7.5891 H       1  UNL1        0.0000
@<TRIPOS>BOND
     1    10     3    1
     2     5     2    1
     3     3     9    1
     4     3     1    1
     5     3     8    1
     6     2     6    1
     7     2     1    1
     8     2     7    1
     9     1     4    1
    10     4    12    1
    11     4    11    1
    12     4    13    1
