@<TRIPOS>MOLECULE
1
 13 12 0 0 0
SMALL
GASTEIGER

@<TRIPOS>ATOM
      1 SI          2.2217    0.8181    2.7477 Si      1  UNL1        0.0000
      2 C           2.3490   -1.0612    3.2283 C.3     1  UNL1        0.0000
      3 C           1.6328    0.7312    0.8967 C.3     1  UNL1        0.0000
      4 C           4.0792    1.3151    2.5590 C.3     1  UNL1        0.0000
      5 H           1.4243   -1.6076    3.0711 H       1  UNL1        0.0000
      6 H           2.6360   -1.1860    4.2671 H       1  UNL1        0.0000
      7 H           3.1088   -1.5407    2.6191 H       1  UNL1        0.0000
      8 H           0.7341    0.1376    0.7606 H       1  UNL1        0.0000
      9 H           2.4092    0.2751    0.2907 H       1  UNL1        0.0000
     10 H           1.4425    1.7201    0.4930 H       1  UNL1        0.0000
     11 H           4.5951    1.2830    3.5113 H       1  UNL1        0.0000
     12 H           4.1808    2.3187    2.1636 H       1  UNL1        0.0000
     13 H           4.5863    0.6358    1.8809 H       1  UNL1        0.0000
@<TRIPOS>BOND
     1     9     3    1
     2    10     3    1
     3     8     3    1
     4     3     1    1
     5    13     4    1
     6    12     4    1
     7     4     1    1
     8     4    11    1
     9     7     2    1
    10     1     2    1
    11     5     2    1
    12     2     6    1
