@<TRIPOS>MOLECULE
1
 4 3 0 0 0
SMALL
GASTEIGER

@<TRIPOS>ATOM
      1 SI          4.0989    4.3575    7.7027 Si      1  UNL1        0.0000
      2 H           5.5110    4.4354    7.2726 H       1  UNL1        0.0000
      3 CL          3.1868    5.7567    6.5153 Cl      1  UNL1        0.0000
      4 CL          4.1222    5.1470    9.5912 Cl      1  UNL1        0.0000
@<TRIPOS>BOND
     1     3     1    1
     2     2     1    1
     3     1     4    1
