@<TRIPOS>MOLECULE
1
 36 37 0 0 0
SMALL
GASTEIGER

@<TRIPOS>ATOM
      1 SI          6.7485    5.2125   11.3900 Si      1  UNL1        0.0000
      2 C           7.9267    5.7064    9.8920 C.ar    1  UNL1        0.0000
      3 C           7.5349    6.7391    9.0429 C.ar    1  UNL1        0.0000
      4 C           8.3154    7.1504    7.9775 C.ar    1  UNL1        0.0000
      5 C           9.5276    6.5294    7.7269 C.ar    1  UNL1        0.0000
      6 C           9.9441    5.5030    8.5573 C.ar    1  UNL1        0.0000
      7 C           9.1540    5.1034    9.6213 C.ar    1  UNL1        0.0000
      8 H           9.4976    4.2995   10.2567 H       1  UNL1        0.0000
      9 H          10.8931    5.0140    8.3735 H       1  UNL1        0.0000
     10 H          10.1423    6.8435    6.8929 H       1  UNL1        0.0000
     11 H           7.9805    7.9569    7.3366 H       1  UNL1        0.0000
     12 H           6.5912    7.2340    9.2308 H       1  UNL1        0.0000
     13 C           7.3678    3.3768   11.6051 C.ar    1  UNL1        0.0000
     14 C           7.4972    2.5505   10.4864 C.ar    1  UNL1        0.0000
     15 C           7.7784    1.2019   10.5959 C.ar    1  UNL1        0.0000
     16 C           7.9317    0.6229   11.8454 C.ar    1  UNL1        0.0000
     17 C           7.7890    1.4125   12.9735 C.ar    1  UNL1        0.0000
     18 C           7.5051    2.7604   12.8481 C.ar    1  UNL1        0.0000
     19 H           7.3760    3.3480   13.7447 H       1  UNL1        0.0000
     20 H           7.8971    0.9706   13.9566 H       1  UNL1        0.0000
     21 H           8.1540   -0.4323   11.9376 H       1  UNL1        0.0000
     22 H           7.8781    0.5944    9.7048 H       1  UNL1        0.0000
     23 H           7.3812    2.9829    9.5009 H       1  UNL1        0.0000
     24 C           7.7077    6.2968   12.7788 C.3     1  UNL1        0.0000
     25 C           6.8995    6.2471   14.0746 C.3     1  UNL1        0.0000
     26 H           5.8684    6.5537   13.8848 H       1  UNL1        0.0000
     27 H           7.3324    6.9089   14.8307 H       1  UNL1        0.0000
     28 H           6.8718    5.2413   14.4864 H       1  UNL1        0.0000
     29 C           9.1454    5.8579   13.0538 C.3     1  UNL1        0.0000
     30 H           9.7494    5.9585   12.1549 H       1  UNL1        0.0000
     31 H           9.1844    4.8201   13.3743 H       1  UNL1        0.0000
     32 H           9.5962    6.4743   13.8364 H       1  UNL1        0.0000
     33 C           7.7313    7.7521   12.3098 C.3     1  UNL1        0.0000
     34 H           8.3343    7.8610   11.4106 H       1  UNL1        0.0000
     35 H           8.1508    8.4039   13.0808 H       1  UNL1        0.0000
     36 H           6.7207    8.0899   12.0870 H       1  UNL1        0.0000
@<TRIPOS>BOND
     1    10     5    1
     2    11     4    1
     3     5     4   ar
     4     5     6   ar
     5     4     3   ar
     6     9     6    1
     7     6     7   ar
     8     3    12    1
     9     3     2   ar
    10    23    14    1
    11     7     2   ar
    12     7     8    1
    13    22    15    1
    14     2     1    1
    15    14    15   ar
    16    14    13   ar
    17    15    16   ar
    18     1    13    1
    19     1    24    1
    20    34    33    1
    21    13    18   ar
    22    16    21    1
    23    16    17   ar
    24    36    33    1
    25    30    29    1
    26    33    24    1
    27    33    35    1
    28    24    29    1
    29    24    25    1
    30    18    17   ar
    31    18    19    1
    32    17    20    1
    33    29    31    1
    34    29    32    1
    35    26    25    1
    36    25    28    1
    37    25    27    1
