@<TRIPOS>MOLECULE
1
 36 37 0 0 0
SMALL
GASTEIGER

@<TRIPOS>ATOM
      1 SI          1.1929    5.2124   11.7900 Si      1  UNL1        0.0000
      2 C           0.0144    5.7065   13.2877 C.ar    1  UNL1        0.0000
      3 C           0.4063    6.7391   14.1369 C.ar    1  UNL1        0.0000
      4 C          -0.3741    7.1504   15.2024 C.ar    1  UNL1        0.0000
      5 C          -1.5864    6.5294   15.4530 C.ar    1  UNL1        0.0000
      6 C          -2.0028    5.5030   14.6226 C.ar    1  UNL1        0.0000
      7 C          -1.2128    5.1035   13.5585 C.ar    1  UNL1        0.0000
      8 C           0.5733    3.3768   11.5748 C.ar    1  UNL1        0.0000
      9 C           0.4440    2.5505   12.6935 C.ar    1  UNL1        0.0000
     10 C           0.1628    1.2019   12.5840 C.ar    1  UNL1        0.0000
     11 C           0.0095    0.6228   11.3345 C.ar    1  UNL1        0.0000
     12 C           0.1522    1.4125   10.2064 C.ar    1  UNL1        0.0000
     13 C           0.4360    2.7604   10.3318 C.ar    1  UNL1        0.0000
     14 C           0.2336    6.2967   10.4012 C.3     1  UNL1        0.0000
     15 C           1.0416    6.2471    9.1054 C.3     1  UNL1        0.0000
     16 C          -1.2042    5.8579   10.1261 C.3     1  UNL1        0.0000
     17 C           0.2100    7.7520   10.8701 C.3     1  UNL1        0.0000
     18 H           1.3500    7.2340   13.9491 H       1  UNL1        0.0000
     19 H          -0.0392    7.9568   15.8433 H       1  UNL1        0.0000
     20 H          -2.2011    6.8435   16.2870 H       1  UNL1        0.0000
     21 H          -2.9518    5.0140   14.8063 H       1  UNL1        0.0000
     22 H          -1.5563    4.2995   12.9231 H       1  UNL1        0.0000
     23 H           0.5601    2.9829   13.6790 H       1  UNL1        0.0000
     24 H           0.0631    0.5944   13.4751 H       1  UNL1        0.0000
     25 H          -0.2129   -0.4323   11.2423 H       1  UNL1        0.0000
     26 H           0.0440    0.9705    9.2233 H       1  UNL1        0.0000
     27 H           0.5651    3.3480    9.4352 H       1  UNL1        0.0000
     28 H           2.0727    6.5536    9.2952 H       1  UNL1        0.0000
     29 H           0.6087    6.9089    8.3493 H       1  UNL1        0.0000
     30 H           1.0693    5.2412    8.6936 H       1  UNL1        0.0000
     31 H          -1.8082    5.9585   11.0250 H       1  UNL1        0.0000
     32 H          -1.2432    4.8201    9.8056 H       1  UNL1        0.0000
     33 H          -1.6550    6.4743    9.3436 H       1  UNL1        0.0000
     34 H          -0.3930    7.8610   11.7693 H       1  UNL1        0.0000
     35 H          -0.2095    8.4038   10.0991 H       1  UNL1        0.0000
     36 H           1.2206    8.0898   11.0929 H       1  UNL1        0.0000
@<TRIPOS>BOND
     1    29    15    1
     2    30    15    1
     3    15    28    1
     4    15    14    1
     5    26    12    1
     6    33    16    1
     7    27    13    1
     8    32    16    1
     9    35    17    1
    10    16    14    1
    11    16    31    1
    12    12    13   ar
    13    12    11   ar
    14    13     8   ar
    15    14    17    1
    16    14     1    1
    17    17    36    1
    18    17    34    1
    19    25    11    1
    20    11    10   ar
    21     8     1    1
    22     8     9   ar
    23     1     2    1
    24    10     9   ar
    25    10    24    1
    26     9    23    1
    27    22     7    1
    28     2     7   ar
    29     2     3   ar
    30     7     6   ar
    31    18     3    1
    32     3     4   ar
    33     6    21    1
    34     6     5   ar
    35     4     5   ar
    36     4    19    1
    37     5    20    1
