@<TRIPOS>MOLECULE
2
 22 21 0 0 0
SMALL
GASTEIGER

@<TRIPOS>ATOM
      1 P           1.8307    2.2996    5.7487 P.3     1  UNL1        0.0000
      2 SI          1.7120    3.4289    7.8662 Si      1  UNL1        0.0000
      3 C           0.7034    2.0901    8.8135 C.3     1  UNL1        0.0000
      4 C           0.3409    4.6325    7.2512 C.3     1  UNL1        0.0000
      5 C           3.4327    1.4885    5.4273 C.3     1  UNL1        0.0000
      6 C           0.6127    0.9748    5.4263 C.3     1  UNL1        0.0000
      7 C           1.6461    3.4056    4.3105 C.3     1  UNL1        0.0000
      8 H           1.2163    1.1359    8.8344 H       1  UNL1        0.0000
      9 H          -0.2684    1.9348    8.3568 H       1  UNL1        0.0000
     10 H           0.5318    2.3861    9.8418 H       1  UNL1        0.0000
     11 H          -0.4493    4.0958    6.7301 H       1  UNL1        0.0000
     12 H          -0.1177    5.1606    8.0799 H       1  UNL1        0.0000
     13 H           0.7472    5.3822    6.5811 H       1  UNL1        0.0000
     14 H           3.5671    0.6509    6.1068 H       1  UNL1        0.0000
     15 H           3.4736    1.1279    4.4001 H       1  UNL1        0.0000
     16 H           4.2277    2.2114    5.5931 H       1  UNL1        0.0000
     17 H           0.7069    0.2033    6.1868 H       1  UNL1        0.0000
     18 H           0.7804    0.5384    4.4424 H       1  UNL1        0.0000
     19 H          -0.3916    1.3902    5.4711 H       1  UNL1        0.0000
     20 H           1.7840    2.8437    3.3871 H       1  UNL1        0.0000
     21 H           0.6556    3.8543    4.3165 H       1  UNL1        0.0000
     22 H           2.3924    4.1943    4.3704 H       1  UNL1        0.0000
@<TRIPOS>BOND
     1    20     7    1
     2     7    21    1
     3     7    22    1
     4     7     1    1
     5    15     5    1
     6    18     6    1
     7     6    19    1
     8     6     1    1
     9     6    17    1
    10     5    16    1
    11     5     1    1
    12     5    14    1
    13     1     2    1
    14    13     4    1
    15    11     4    1
    16     4     2    1
    17     4    12    1
    18     2     3    1
    19     9     3    1
    20     3     8    1
    21     3    10    1
