@<TRIPOS>MOLECULE
1
 34 34 0 0 0
SMALL
GASTEIGER

@<TRIPOS>ATOM
      1 SI          2.2105    2.5057    3.3058 Si      1  UNL1        0.0000
      2 N           3.0345    3.1672    1.9119 N.pl3   1  UNL1        0.0000
      3 N           3.2679    3.3755    4.3830 N.pl3   1  UNL1        0.0000
      4 C           3.9125    4.1633    2.3368 C.2     1  UNL1        0.0000
      5 C           4.0111    4.2930    3.6574 C.2     1  UNL1        0.0000
      6 C           3.2058    2.6356    0.5764 C.3     1  UNL1        0.0000
      7 C           2.1030    1.6218    0.2843 C.3     1  UNL1        0.0000
      8 C           3.1368    3.7532   -0.4793 C.3     1  UNL1        0.0000
      9 C           4.5652    1.9255    0.4732 C.3     1  UNL1        0.0000
     10 C           3.4100    3.3223    5.8223 C.3     1  UNL1        0.0000
     11 C           2.7293    2.0633    6.3554 C.3     1  UNL1        0.0000
     12 C           2.7570    4.5564    6.4611 C.3     1  UNL1        0.0000
     13 C           4.8976    3.2569    6.2084 C.3     1  UNL1        0.0000
     14 H           2.6379    1.0729    3.4396 H       1  UNL1        0.0000
     15 H           4.4327    4.7713    1.6202 H       1  UNL1        0.0000
     16 H           4.6113    5.0323    4.1551 H       1  UNL1        0.0000
     17 H           2.1744    1.2734   -0.7435 H       1  UNL1        0.0000
     18 H           1.1267    2.0700    0.4361 H       1  UNL1        0.0000
     19 H           2.2037    0.7679    0.9448 H       1  UNL1        0.0000
     20 H           2.2612    4.3766   -0.3175 H       1  UNL1        0.0000
     21 H           3.0785    3.3203   -1.4753 H       1  UNL1        0.0000
     22 H           4.0173    4.3882   -0.4429 H       1  UNL1        0.0000
     23 H           4.7061    1.5066   -0.5206 H       1  UNL1        0.0000
     24 H           4.6132    1.1258    1.2079 H       1  UNL1        0.0000
     25 H           5.3723    2.6239    0.6786 H       1  UNL1        0.0000
     26 H           2.8279    2.0190    7.4373 H       1  UNL1        0.0000
     27 H           3.1897    1.1799    5.9244 H       1  UNL1        0.0000
     28 H           1.6756    2.0713    6.0985 H       1  UNL1        0.0000
     29 H           2.8957    4.5466    7.5394 H       1  UNL1        0.0000
     30 H           1.6928    4.5514    6.2397 H       1  UNL1        0.0000
     31 H           3.1925    5.4695    6.0620 H       1  UNL1        0.0000
     32 H           5.3876    2.4684    5.6424 H       1  UNL1        0.0000
     33 H           4.9969    3.0418    7.2697 H       1  UNL1        0.0000
     34 H           5.4072    4.1943    6.0047 H       1  UNL1        0.0000
@<TRIPOS>BOND
     1    21     8    1
     2    17     7    1
     3    23     9    1
     4     8    22    1
     5     8    20    1
     6     8     6    1
     7     7    18    1
     8     7     6    1
     9     7    19    1
    10     9     6    1
    11     9    25    1
    12     9    24    1
    13     6     2    1
    14    15     4    1
    15     2     4    1
    16     2     1    1
    17     4     5    2
    18     1    14    1
    19     1     3    1
    20     5    16    1
    21     5     3    1
    22     3    10    1
    23    32    13    1
    24    10    13    1
    25    10    11    1
    26    10    12    1
    27    27    11    1
    28    34    13    1
    29    31    12    1
    30    28    11    1
    31    13    33    1
    32    30    12    1
    33    11    26    1
    34    12    29    1
