@<TRIPOS>MOLECULE
1
 36 37 0 0 0
SMALL
GASTEIGER

@<TRIPOS>ATOM
      1 SI         10.0080    0.2343   10.2571 Si      1  UNL1        0.0000
      2 C          11.3294    0.0090   11.6845 C.3     1  UNL1        0.0000
      3 C          10.7645    0.6397   12.9605 C.3     1  UNL1        0.0000
      4 C          11.5870   -1.4731   11.9634 C.3     1  UNL1        0.0000
      5 C          12.6509    0.6991   11.3407 C.3     1  UNL1        0.0000
      6 C          10.3738   -0.8351    8.7071 C.ar    1  UNL1        0.0000
      7 C           9.3278   -1.1023    7.8238 C.ar    1  UNL1        0.0000
      8 C           9.5231   -1.8329    6.6665 C.ar    1  UNL1        0.0000
      9 C          10.7831   -2.3178    6.3557 C.ar    1  UNL1        0.0000
     10 C          11.8383   -2.0597    7.2126 C.ar    1  UNL1        0.0000
     11 C          11.6317   -1.3253    8.3684 C.ar    1  UNL1        0.0000
     12 C           8.4353   -0.6152   10.9667 C.ar    1  UNL1        0.0000
     13 C           7.5071    0.0856   11.7352 C.ar    1  UNL1        0.0000
     14 C           6.4016   -0.5463   12.2773 C.ar    1  UNL1        0.0000
     15 C           6.1988   -1.8994   12.0655 C.ar    1  UNL1        0.0000
     16 C           7.1120   -2.6147   11.3096 C.ar    1  UNL1        0.0000
     17 C           8.2152   -1.9784   10.7696 C.ar    1  UNL1        0.0000
     18 H          10.4884    1.6794   12.8007 H       1  UNL1        0.0000
     19 H          11.5023    0.5996   13.7616 H       1  UNL1        0.0000
     20 H           9.8772    0.1051   13.2905 H       1  UNL1        0.0000
     21 H          11.9867   -1.9791   11.0895 H       1  UNL1        0.0000
     22 H          10.6646   -1.9720   12.2494 H       1  UNL1        0.0000
     23 H          12.3012   -1.5837   12.7790 H       1  UNL1        0.0000
     24 H          13.1370    0.2238   10.4929 H       1  UNL1        0.0000
     25 H          13.3341    0.6466   12.1888 H       1  UNL1        0.0000
     26 H          12.4883    1.7460   11.0945 H       1  UNL1        0.0000
     27 H           8.3377   -0.7353    8.0528 H       1  UNL1        0.0000
     28 H           8.6919   -2.0262    6.0032 H       1  UNL1        0.0000
     29 H          10.9404   -2.8906    5.4534 H       1  UNL1        0.0000
     30 H          12.8267   -2.4301    6.9793 H       1  UNL1        0.0000
     31 H          12.4719   -1.1350    9.0175 H       1  UNL1        0.0000
     32 H           7.6527    1.1403   11.9128 H       1  UNL1        0.0000
     33 H           5.6965    0.0193   12.8694 H       1  UNL1        0.0000
     34 H           5.3363   -2.3942   12.4883 H       1  UNL1        0.0000
     35 H           6.9651   -3.6724   11.1422 H       1  UNL1        0.0000
     36 H           8.9205   -2.5477   10.1820 H       1  UNL1        0.0000
@<TRIPOS>BOND
     1    29     9    1
     2    28     8    1
     3     9     8   ar
     4     9    10   ar
     5     8     7   ar
     6    30    10    1
     7    10    11   ar
     8     7    27    1
     9     7     6   ar
    10    11     6   ar
    11    11    31    1
    12     6     1    1
    13    36    17    1
    14     1    12    1
    15     1     2    1
    16    24     5    1
    17    17    12   ar
    18    17    16   ar
    19    12    13   ar
    20    21     4    1
    21    26     5    1
    22    35    16    1
    23    16    15   ar
    24     5     2    1
    25     5    25    1
    26     2     4    1
    27     2     3    1
    28    13    32    1
    29    13    14   ar
    30     4    22    1
    31     4    23    1
    32    15    14   ar
    33    15    34    1
    34    14    33    1
    35    18     3    1
    36     3    20    1
    37     3    19    1
