@<TRIPOS>MOLECULE
1
 36 37 0 0 0
SMALL
GASTEIGER

@<TRIPOS>ATOM
      1 SI         -0.6208   11.7476   12.2277 Si      1  UNL1        0.0000
      2 C          -2.5081   11.3579   11.8065 C.3     1  UNL1        0.0000
      3 C          -2.7019    9.9378   11.2702 C.3     1  UNL1        0.0000
      4 C          -3.3712   11.5424   13.0565 C.3     1  UNL1        0.0000
      5 C          -3.0297   12.3425   10.7544 C.3     1  UNL1        0.0000
      6 C           0.4378   10.9560   10.8176 C.ar    1  UNL1        0.0000
      7 C           0.0964   11.0793    9.4707 C.ar    1  UNL1        0.0000
      8 C           0.8918   10.5628    8.4630 C.ar    1  UNL1        0.0000
      9 C           2.0682    9.9039    8.7749 C.ar    1  UNL1        0.0000
     10 C           2.4296    9.7648   10.1038 C.ar    1  UNL1        0.0000
     11 C           1.6256   10.2820   11.1037 C.ar    1  UNL1        0.0000
     12 C           0.0164   10.7328   13.7382 C.ar    1  UNL1        0.0000
     13 C          -0.6162    9.6402   14.3214 C.ar    1  UNL1        0.0000
     14 C          -0.0699    8.9801   15.4097 C.ar    1  UNL1        0.0000
     15 C           1.1391    9.3934   15.9390 C.ar    1  UNL1        0.0000
     16 C           1.7991   10.4673   15.3637 C.ar    1  UNL1        0.0000
     17 C           1.2421   11.1226   14.2817 C.ar    1  UNL1        0.0000
     18 H          -2.1063    9.7743   10.3763 H       1  UNL1        0.0000
     19 H          -3.7496    9.7696   11.0192 H       1  UNL1        0.0000
     20 H          -2.4072    9.1932   12.0032 H       1  UNL1        0.0000
     21 H          -3.3018   12.5665   13.4136 H       1  UNL1        0.0000
     22 H          -3.0631   10.8813   13.8607 H       1  UNL1        0.0000
     23 H          -4.4164   11.3295   12.8281 H       1  UNL1        0.0000
     24 H          -2.7723   13.3656   11.0160 H       1  UNL1        0.0000
     25 H          -4.1150   12.2665   10.6776 H       1  UNL1        0.0000
     26 H          -2.6208   12.1281    9.7718 H       1  UNL1        0.0000
     27 H          -0.8124   11.5905    9.1970 H       1  UNL1        0.0000
     28 H           0.5937   10.6768    7.4297 H       1  UNL1        0.0000
     29 H           2.6938    9.5015    7.9913 H       1  UNL1        0.0000
     30 H           3.3433    9.2486   10.3626 H       1  UNL1        0.0000
     31 H           1.9269   10.1523   12.1313 H       1  UNL1        0.0000
     32 H          -1.5542    9.2870   13.9232 H       1  UNL1        0.0000
     33 H          -0.5894    8.1373   15.8436 H       1  UNL1        0.0000
     34 H           1.5668    8.8812   16.7887 H       1  UNL1        0.0000
     35 H           2.7500   10.7927   15.7621 H       1  UNL1        0.0000
     36 H           1.7643   11.9573   13.8340 H       1  UNL1        0.0000
@<TRIPOS>BOND
     1    28     8    1
     2    29     9    1
     3     8     9   ar
     4     8     7   ar
     5     9    10   ar
     6    27     7    1
     7     7     6   ar
     8    26     5    1
     9    10    30    1
    10    10    11   ar
    11    18     3    1
    12    25     5    1
    13     5    24    1
    14     5     2    1
    15     6    11   ar
    16     6     1    1
    17    19     3    1
    18    11    31    1
    19     3     2    1
    20     3    20    1
    21     2     1    1
    22     2     4    1
    23     1    12    1
    24    23     4    1
    25     4    21    1
    26     4    22    1
    27    12    17   ar
    28    12    13   ar
    29    36    17    1
    30    32    13    1
    31    17    16   ar
    32    13    14   ar
    33    16    35    1
    34    16    15   ar
    35    14    33    1
    36    14    15   ar
    37    15    34    1
