@<TRIPOS>MOLECULE
1
 13 12 0 0 0
SMALL
GASTEIGER

@<TRIPOS>ATOM
      1 SI          7.7106   -1.4270   11.4012 Si      1  UNL1        0.0000
      2 C           7.9572   -2.5482   12.9523 C.3     1  UNL1        0.0000
      3 C           6.6396   -2.4847   10.1869 C.3     1  UNL1        0.0000
      4 C           9.4406   -1.5293   10.5473 C.3     1  UNL1        0.0000
      5 H           7.0168   -2.7304   13.4628 H       1  UNL1        0.0000
      6 H           8.6306   -2.0849   13.6676 H       1  UNL1        0.0000
      7 H           8.3766   -3.5121   12.6802 H       1  UNL1        0.0000
      8 H           5.6693   -2.7220   10.6089 H       1  UNL1        0.0000
      9 H           7.1459   -3.4232    9.9841 H       1  UNL1        0.0000
     10 H           6.4799   -1.9873    9.2356 H       1  UNL1        0.0000
     11 H           9.7390   -2.5687   10.4497 H       1  UNL1        0.0000
     12 H          10.2076   -1.0224   11.1222 H       1  UNL1        0.0000
     13 H           9.4342   -1.0997    9.5510 H       1  UNL1        0.0000
@<TRIPOS>BOND
     1    10     3    1
     2    13     4    1
     3     9     3    1
     4     3     8    1
     5     3     1    1
     6    11     4    1
     7     4    12    1
     8     4     1    1
     9     1     2    1
    10     7     2    1
    11     2     5    1
    12     2     6    1
