@<TRIPOS>MOLECULE
1
 54 56 0 0 0
SMALL
GASTEIGER

@<TRIPOS>ATOM
      1 SI          1.4660    4.1020    4.7843 Si      1  UNL1        0.0000
      2 CL          0.8012    5.9873    5.2678 Cl      1  UNL1        0.0000
      3 C           1.6351    3.0029    6.3366 C.2     1  UNL1        0.0000
      4 C           2.9449    2.7223    6.4814 C.2     1  UNL1        0.0000
      5 C           3.8828    3.3760    5.5541 C.2     1  UNL1        0.0000
      6 SI          4.3241    5.1512    3.3060 Si      1  UNL1        0.0000
      7 C           3.3641    4.1795    4.6060 C.2     1  UNL1        0.0000
      8 C           3.1039    5.5148    1.8893 C.3     1  UNL1        0.0000
      9 H           2.3510    6.2240    2.2148 H       1  UNL1        0.0000
     10 H           2.5859    4.6209    1.5554 H       1  UNL1        0.0000
     11 H           3.6078    5.9466    1.0305 H       1  UNL1        0.0000
     12 C           4.9064    6.8238    4.0176 C.3     1  UNL1        0.0000
     13 H           5.8056    6.7217    4.6164 H       1  UNL1        0.0000
     14 H           4.1356    7.2644    4.6426 H       1  UNL1        0.0000
     15 H           5.1238    7.5278    3.2197 H       1  UNL1        0.0000
     16 C           5.8160    4.1849    2.6038 C.3     1  UNL1        0.0000
     17 H           6.2489    4.7123    1.7591 H       1  UNL1        0.0000
     18 H           5.5375    3.1938    2.2584 H       1  UNL1        0.0000
     19 H           6.5957    4.0597    3.3474 H       1  UNL1        0.0000
     20 SI          0.2112    2.4289    7.4318 Si      1  UNL1        0.0000
     21 C          -0.9695    3.9074    7.6456 C.3     1  UNL1        0.0000
     22 H          -1.3931    4.2184    6.6972 H       1  UNL1        0.0000
     23 H          -0.4561    4.7657    8.0667 H       1  UNL1        0.0000
     24 H          -1.7943    3.6604    8.3070 H       1  UNL1        0.0000
     25 C          -0.7046    1.0202    6.5214 C.3     1  UNL1        0.0000
     26 H          -1.5908    0.7167    7.0695 H       1  UNL1        0.0000
     27 H          -0.0822    0.1397    6.3961 H       1  UNL1        0.0000
     28 H          -1.0214    1.3487    5.5358 H       1  UNL1        0.0000
     29 C           0.7400    1.8434    9.1697 C.3     1  UNL1        0.0000
     30 H          -0.1118    1.8380    9.8436 H       1  UNL1        0.0000
     31 H           1.4910    2.5013    9.5947 H       1  UNL1        0.0000
     32 H           1.1566    0.8423    9.1572 H       1  UNL1        0.0000
     33 C           3.5121    1.8234    7.4985 C.ar    1  UNL1        0.0000
     34 C           3.2177    0.4647    7.4816 C.ar    1  UNL1        0.0000
     35 H           2.5365    0.0793    6.7364 H       1  UNL1        0.0000
     36 C           3.7919   -0.3919    8.4026 C.ar    1  UNL1        0.0000
     37 H           3.5598   -1.4470    8.3744 H       1  UNL1        0.0000
     38 C           4.6621    0.1008    9.3596 C.ar    1  UNL1        0.0000
     39 H           5.1117   -0.5678   10.0788 H       1  UNL1        0.0000
     40 C           4.9529    1.4545    9.3914 C.ar    1  UNL1        0.0000
     41 H           5.6275    1.8443   10.1396 H       1  UNL1        0.0000
     42 C           4.3882    2.3093    8.4642 C.ar    1  UNL1        0.0000
     43 H           4.6147    3.3649    8.4915 H       1  UNL1        0.0000
     44 C           5.3192    3.1008    5.7176 C.ar    1  UNL1        0.0000
     45 C           5.8219    1.8288    5.4640 C.ar    1  UNL1        0.0000
     46 H           5.1531    1.0478    5.1312 H       1  UNL1        0.0000
     47 C           7.1687    1.5639    5.6261 C.ar    1  UNL1        0.0000
     48 H           7.5501    0.5740    5.4216 H       1  UNL1        0.0000
     49 C           8.0276    2.5622    6.0541 C.ar    1  UNL1        0.0000
     50 H           9.0789    2.3525    6.1858 H       1  UNL1        0.0000
     51 C           7.5333    3.8288    6.3167 C.ar    1  UNL1        0.0000
     52 H           8.1997    4.6089    6.6560 H       1  UNL1        0.0000
     53 C           6.1875    4.0973    6.1479 C.ar    1  UNL1        0.0000
     54 H           5.7924    5.0791    6.3612 H       1  UNL1        0.0000
@<TRIPOS>BOND
     1    11     8    1
     2    10     8    1
     3    17    16    1
     4     8     9    1
     5     8     6    1
     6    18    16    1
     7    16     6    1
     8    16    19    1
     9    15    12    1
    10     6    12    1
    11     6     7    1
    12    12    13    1
    13    12    14    1
    14     7     1    1
    15     7     5    2
    16     1     2    1
    17     1     3    1
    18    46    45    1
    19    48    47    1
    20    45    47   ar
    21    45    44   ar
    22    28    25    1
    23     5    44    1
    24     5     4    1
    25    47    49   ar
    26    44    53   ar
    27    49    50    1
    28    49    51   ar
    29    53    51   ar
    30    53    54    1
    31    51    52    1
    32     3     4    2
    33     3    20    1
    34    27    25    1
    35     4    33    1
    36    25    26    1
    37    25    20    1
    38    22    21    1
    39    35    34    1
    40    20    21    1
    41    20    29    1
    42    34    33   ar
    43    34    36   ar
    44    33    42   ar
    45    21    23    1
    46    21    24    1
    47    37    36    1
    48    36    38   ar
    49    42    43    1
    50    42    40   ar
    51    32    29    1
    52    29    31    1
    53    29    30    1
    54    38    40   ar
    55    38    39    1
    56    40    41    1
