@<TRIPOS>MOLECULE
1
 57 59 0 0 0
SMALL
GASTEIGER

@<TRIPOS>ATOM
      1 SI          8.3937    7.4585    3.3161 Si      1  UNL1        0.0000
      2 SI          5.3344    8.0315    1.9663 Si      1  UNL1        0.0000
      3 C           6.8421    8.5202    2.9853 C.2     1  UNL1        0.0000
      4 SI         10.7692    8.7759    5.3330 Si      1  UNL1        0.0000
      5 C           7.0383    9.7100    3.5881 C.2     1  UNL1        0.0000
      6 C           8.2937    9.9001    4.3253 C.2     1  UNL1        0.0000
      7 C           9.1464    8.8565    4.3779 C.2     1  UNL1        0.0000
      8 C           7.8695    5.9439    4.3712 C.3     1  UNL1        0.0000
      9 H           8.7238    5.3187    4.6003 H       1  UNL1        0.0000
     10 H           7.1507    5.3387    3.8310 H       1  UNL1        0.0000
     11 H           7.4157    6.2531    5.3060 H       1  UNL1        0.0000
     12 C           5.8593    6.5735    0.8573 C.3     1  UNL1        0.0000
     13 H           6.8079    6.7659    0.3656 H       1  UNL1        0.0000
     14 H           5.1200    6.3730    0.0885 H       1  UNL1        0.0000
     15 H           5.9763    5.6658    1.4384 H       1  UNL1        0.0000
     16 C           4.6861    9.4305    0.8360 C.3     1  UNL1        0.0000
     17 H           5.4442    9.7693    0.1361 H       1  UNL1        0.0000
     18 H           4.3639   10.2928    1.4098 H       1  UNL1        0.0000
     19 H           3.8366    9.0888    0.2517 H       1  UNL1        0.0000
     20 C           3.9141    7.4216    3.0913 C.3     1  UNL1        0.0000
     21 H           3.2515    6.7542    2.5483 H       1  UNL1        0.0000
     22 H           3.3136    8.2450    3.4638 H       1  UNL1        0.0000
     23 H           4.2992    6.8759    3.9471 H       1  UNL1        0.0000
     24 C           6.0910   10.8359    3.5394 C.ar    1  UNL1        0.0000
     25 C           4.8614   10.7560    4.1832 C.ar    1  UNL1        0.0000
     26 H           4.6109    9.8546    4.7219 H       1  UNL1        0.0000
     27 C           3.9804   11.8210    4.1479 C.ar    1  UNL1        0.0000
     28 H           3.0288   11.7502    4.6550 H       1  UNL1        0.0000
     29 C           4.3165   12.9786    3.4663 C.ar    1  UNL1        0.0000
     30 H           3.6281   13.8105    3.4381 H       1  UNL1        0.0000
     31 C           5.5401   13.0671    2.8239 C.ar    1  UNL1        0.0000
     32 H           5.8068   13.9690    2.2921 H       1  UNL1        0.0000
     33 C           6.4242   12.0055    2.8640 C.ar    1  UNL1        0.0000
     34 H           7.3789   12.0774    2.3626 H       1  UNL1        0.0000
     35 C           8.5179   11.2129    4.9519 C.ar    1  UNL1        0.0000
     36 C           7.6739   11.6700    5.9595 C.ar    1  UNL1        0.0000
     37 H           6.8756   11.0330    6.3112 H       1  UNL1        0.0000
     38 C           7.8597   12.9205    6.5171 C.ar    1  UNL1        0.0000
     39 H           7.2011   13.2614    7.3028 H       1  UNL1        0.0000
     40 C           8.8823   13.7393    6.0679 C.ar    1  UNL1        0.0000
     41 H           9.0211   14.7202    6.4980 H       1  UNL1        0.0000
     42 C           9.7266   13.2943    5.0653 C.ar    1  UNL1        0.0000
     43 H          10.5270   13.9285    4.7113 H       1  UNL1        0.0000
     44 C           9.5476   12.0385    4.5152 C.ar    1  UNL1        0.0000
     45 H          10.2083   11.6923    3.7334 H       1  UNL1        0.0000
     46 C          10.8854    7.0470    6.1289 C.3     1  UNL1        0.0000
     47 H          10.9735    6.2717    5.3770 H       1  UNL1        0.0000
     48 H          10.0104    6.8253    6.7307 H       1  UNL1        0.0000
     49 H          11.7547    6.9729    6.7751 H       1  UNL1        0.0000
     50 C          12.2166    8.9785    4.1022 C.3     1  UNL1        0.0000
     51 H          12.2542    9.9747    3.6728 H       1  UNL1        0.0000
     52 H          12.1200    8.2674    3.2871 H       1  UNL1        0.0000
     53 H          13.1702    8.7977    4.5880 H       1  UNL1        0.0000
     54 C          10.9389   10.0552    6.7411 C.3     1  UNL1        0.0000
     55 H          11.7158    9.7561    7.4389 H       1  UNL1        0.0000
     56 H          10.0132   10.1476    7.2998 H       1  UNL1        0.0000
     57 H          11.1913   11.0426    6.3705 H       1  UNL1        0.0000
@<TRIPOS>BOND
     1    14    12    1
     2    17    16    1
     3    19    16    1
     4    13    12    1
     5    16    18    1
     6    16     2    1
     7    12    15    1
     8    12     2    1
     9     2     3    1
    10     2    20    1
    11    32    31    1
    12    34    33    1
    13    21    20    1
    14    31    33   ar
    15    31    29   ar
    16    33    24   ar
    17     3     1    1
    18     3     5    2
    19    20    22    1
    20    20    23    1
    21    52    50    1
    22     1     8    1
    23     1     7    1
    24    30    29    1
    25    29    27   ar
    26    24     5    1
    27    24    25   ar
    28     5     6    1
    29    51    50    1
    30    45    44    1
    31    10     8    1
    32    50    53    1
    33    50     4    1
    34    27    25   ar
    35    27    28    1
    36    25    26    1
    37     6     7    2
    38     6    35    1
    39     8     9    1
    40     8    11    1
    41     7     4    1
    42    44    35   ar
    43    44    42   ar
    44    43    42    1
    45    35    36   ar
    46    42    40   ar
    47     4    46    1
    48     4    54    1
    49    47    46    1
    50    36    37    1
    51    36    38   ar
    52    40    41    1
    53    40    38   ar
    54    46    48    1
    55    46    49    1
    56    57    54    1
    57    38    39    1
    58    54    56    1
    59    54    55    1
