@<TRIPOS>MOLECULE
1
 7 6 0 0 0
SMALL
GASTEIGER

@<TRIPOS>ATOM
      1 SI         -2.8107    1.3662    3.9522 Si      1  UNL1        0.0000
      2 CL         -4.4175    2.7194    4.2493 Cl      1  UNL1        0.0000
      3 CL         -3.8448   -0.2488    3.0399 Cl      1  UNL1        0.0000
      4 C          -2.6093    0.6929    5.7453 C.3     1  UNL1        0.0000
      5 H          -2.3114    1.4789    6.4318 H       1  UNL1        0.0000
      6 H          -1.8573   -0.0881    5.7852 H       1  UNL1        0.0000
      7 H          -3.5473    0.2717    6.0978 H       1  UNL1        0.0000
@<TRIPOS>BOND
     1     3     1    1
     2     1     2    1
     3     1     4    1
     4     4     6    1
     5     4     7    1
     6     4     5    1
