@<TRIPOS>MOLECULE
1
 21 20 0 0 0
SMALL
GASTEIGER

@<TRIPOS>ATOM
      1 SI          2.5520    4.6021    5.3160 Si      1  UNL1        0.0000
      2 O           2.5731    2.9723    5.7029 O.3     1  UNL1        0.0000
      3 O           3.5622    5.4490    6.3460 O.3     1  UNL1        0.0000
      4 C           0.7620    5.1967    5.8069 C.3     1  UNL1        0.0000
      5 H           0.8145    5.9917    6.5459 H       1  UNL1        0.0000
      6 H           0.1914    4.3728    6.2280 H       1  UNL1        0.0000
      7 H           0.1994    5.5773    4.9614 H       1  UNL1        0.0000
      8 C           2.1725    2.3554    6.8966 C.3     1  UNL1        0.0000
      9 H           1.4756    1.5490    6.6326 H       1  UNL1        0.0000
     10 H           1.6397    3.0679    7.5347 H       1  UNL1        0.0000
     11 C           3.3679    1.7859    7.6509 C.3     1  UNL1        0.0000
     12 H           3.0440    1.3698    8.6017 H       1  UNL1        0.0000
     13 H           4.0952    2.5727    7.8331 H       1  UNL1        0.0000
     14 H           3.8462    1.0032    7.0674 H       1  UNL1        0.0000
     15 C           3.4671    5.5048    7.7439 C.3     1  UNL1        0.0000
     16 H           4.2916    4.9144    8.1653 H       1  UNL1        0.0000
     17 H           2.5265    5.0583    8.0802 H       1  UNL1        0.0000
     18 C           3.5530    6.9395    8.2460 C.3     1  UNL1        0.0000
     19 H           3.4827    6.9544    9.3310 H       1  UNL1        0.0000
     20 H           2.7424    7.5289    7.8257 H       1  UNL1        0.0000
     21 H           4.4945    7.3912    7.9447 H       1  UNL1        0.0000
@<TRIPOS>BOND
     1     7     4    1
     2     1     2    1
     3     1     4    1
     4     1     3    1
     5     2     8    1
     6     4     6    1
     7     4     5    1
     8     3    15    1
     9     9     8    1
    10     8    10    1
    11     8    11    1
    12    14    11    1
    13    11    13    1
    14    11    12    1
    15    15    17    1
    16    15    16    1
    17    15    18    1
    18    20    18    1
    19    21    18    1
    20    18    19    1
