@<TRIPOS>MOLECULE
1
 41 42 0 0 0
SMALL
GASTEIGER

@<TRIPOS>ATOM
      1 SI          5.6889    4.9979   13.8893 Si      1  UNL1        0.0000
      2 C           5.5566    3.3605   14.9026 C.ar    1  UNL1        0.0000
      3 C           6.6208    2.9210   15.7060 C.ar    1  UNL1        0.0000
      4 C           6.5196    1.7260   16.4058 C.ar    1  UNL1        0.0000
      5 H           7.3478    1.4085   17.0248 H       1  UNL1        0.0000
      6 C           5.3905    0.9288   16.3301 C.ar    1  UNL1        0.0000
      7 C           4.3487    1.3537   15.5181 C.ar    1  UNL1        0.0000
      8 H           3.4620    0.7400   15.4372 H       1  UNL1        0.0000
      9 C           4.4186    2.5421   14.8107 C.ar    1  UNL1        0.0000
     10 C           7.8869    3.7088   15.8447 C.3     1  UNL1        0.0000
     11 H           8.2841    3.9898   14.8706 H       1  UNL1        0.0000
     12 H           8.6392    3.1294   16.3761 H       1  UNL1        0.0000
     13 H           7.7197    4.6283   16.4015 H       1  UNL1        0.0000
     14 C           5.2890   -0.3616   17.0831 C.3     1  UNL1        0.0000
     15 H           6.1484   -0.5031   17.7336 H       1  UNL1        0.0000
     16 H           5.2378   -1.2003   16.3890 H       1  UNL1        0.0000
     17 H           4.3845   -0.3774   17.6893 H       1  UNL1        0.0000
     18 C           3.2576    2.9298   13.9474 C.3     1  UNL1        0.0000
     19 H           2.5086    2.1414   13.9353 H       1  UNL1        0.0000
     20 H           3.5782    3.1145   12.9246 H       1  UNL1        0.0000
     21 H           2.7956    3.8396   14.3237 H       1  UNL1        0.0000
     22 C           4.2157    6.0745   14.4930 C.ar    1  UNL1        0.0000
     23 C           3.1379    6.3992   13.6623 C.ar    1  UNL1        0.0000
     24 C           2.1384    7.2474   14.1228 C.ar    1  UNL1        0.0000
     25 H           1.3112    7.4832   13.4675 H       1  UNL1        0.0000
     26 C           2.1783    7.8001   15.3912 C.ar    1  UNL1        0.0000
     27 C           3.2558    7.4844   16.2074 C.ar    1  UNL1        0.0000
     28 H           3.3094    7.9113   17.1993 H       1  UNL1        0.0000
     29 C           4.2647    6.6411   15.7760 C.ar    1  UNL1        0.0000
     30 C           2.9800    5.8571   12.2724 C.3     1  UNL1        0.0000
     31 H           2.1028    5.2122   12.2151 H       1  UNL1        0.0000
     32 H           3.8514    5.2938   11.9540 H       1  UNL1        0.0000
     33 H           2.8322    6.6805   11.5764 H       1  UNL1        0.0000
     34 C           1.1055    8.7352   15.8584 C.3     1  UNL1        0.0000
     35 H           1.3481    9.7548   15.5574 H       1  UNL1        0.0000
     36 H           1.0171    8.7158   16.9421 H       1  UNL1        0.0000
     37 H           0.1450    8.4755   15.4190 H       1  UNL1        0.0000
     38 C           5.4104    6.3409   16.6929 C.3     1  UNL1        0.0000
     39 H           5.2953    6.8664   17.6380 H       1  UNL1        0.0000
     40 H           6.3500    6.6536   16.2409 H       1  UNL1        0.0000
     41 H           5.4617    5.2730   16.8989 H       1  UNL1        0.0000
@<TRIPOS>BOND
     1    33    30    1
     2    32    30    1
     3    31    30    1
     4    30    23    1
     5    20    18    1
     6    25    24    1
     7    23    24   ar
     8    23    22   ar
     9     1    22    1
    10     1     2    1
    11    19    18    1
    12    18    21    1
    13    18     9    1
    14    24    26   ar
    15    22    29   ar
    16     9     2   ar
    17     9     7   ar
    18    11    10    1
    19     2     3   ar
    20    26    34    1
    21    26    27   ar
    22    37    34    1
    23     8     7    1
    24     7     6   ar
    25    35    34    1
    26     3    10    1
    27     3     4   ar
    28    29    27   ar
    29    29    38    1
    30    10    12    1
    31    10    13    1
    32    34    36    1
    33    27    28    1
    34    40    38    1
    35     6     4   ar
    36     6    14    1
    37    16    14    1
    38     4     5    1
    39    38    41    1
    40    38    39    1
    41    14    17    1
    42    14    15    1
