@<TRIPOS>MOLECULE
1
 13 12 0 0 0
SMALL
GASTEIGER

@<TRIPOS>ATOM
      1 SI          8.4583    7.9816   11.9827 Si      1  UNL1        0.0000
      2 C           8.2887    8.7625   10.2304 C.3     1  UNL1        0.0000
      3 H           7.2677    8.7142    9.8695 H       1  UNL1        0.0000
      4 H           8.9286    8.2923    9.4922 H       1  UNL1        0.0000
      5 H           8.5710    9.8095   10.2739 H       1  UNL1        0.0000
      6 C           7.7161    9.3474   13.1253 C.3     1  UNL1        0.0000
      7 H           7.8794    9.1199   14.1736 H       1  UNL1        0.0000
      8 H           6.6460    9.4524   12.9784 H       1  UNL1        0.0000
      9 H           8.1724   10.3125   12.9246 H       1  UNL1        0.0000
     10 C          10.3504    8.0287   12.3658 C.3     1  UNL1        0.0000
     11 H          10.5830    8.9153   12.9459 H       1  UNL1        0.0000
     12 H          10.9460    8.0684   11.4605 H       1  UNL1        0.0000
     13 H          10.6754    7.1725   12.9482 H       1  UNL1        0.0000
@<TRIPOS>BOND
     1     4     2    1
     2     3     2    1
     3     2     5    1
     4     2     1    1
     5    12    10    1
     6     1    10    1
     7     1     6    1
     8    10    11    1
     9    10    13    1
    10     9     6    1
    11     8     6    1
    12     6     7    1
