@<TRIPOS>MOLECULE
1
 33 34 0 0 0
SMALL
GASTEIGER

@<TRIPOS>ATOM
      1 SI          5.5796    1.4545    6.4128 Si      1  UNL1        0.0000
      2 N           3.9705    1.7104    5.7753 N.pl3   1  UNL1        0.0000
      3 C           3.4787    2.9484    6.1435 C.2     1  UNL1        0.0000
      4 H           2.5289    3.2981    5.7903 H       1  UNL1        0.0000
      5 C           4.2901    3.6373    6.9521 C.2     1  UNL1        0.0000
      6 H           4.0810    4.6159    7.3367 H       1  UNL1        0.0000
      7 N           5.4645    2.9787    7.2641 N.pl3   1  UNL1        0.0000
      8 C           3.1375    0.8788    4.9124 C.3     1  UNL1        0.0000
      9 C           3.6865   -0.5436    4.8370 C.3     1  UNL1        0.0000
     10 H           4.6669   -0.5606    4.3696 H       1  UNL1        0.0000
     11 H           3.0167   -1.1612    4.2431 H       1  UNL1        0.0000
     12 H           3.7598   -0.9741    5.8319 H       1  UNL1        0.0000
     13 C           3.1207    1.4846    3.5035 C.3     1  UNL1        0.0000
     14 H           4.1284    1.4988    3.0957 H       1  UNL1        0.0000
     15 H           2.7459    2.5050    3.5249 H       1  UNL1        0.0000
     16 H           2.4860    0.8952    2.8469 H       1  UNL1        0.0000
     17 C           1.7101    0.7958    5.4775 C.3     1  UNL1        0.0000
     18 H           1.7454    0.5302    6.5316 H       1  UNL1        0.0000
     19 H           1.1484    0.0320    4.9460 H       1  UNL1        0.0000
     20 H           1.1733    1.7341    5.3740 H       1  UNL1        0.0000
     21 C           6.3998    3.6482    8.1625 C.3     1  UNL1        0.0000
     22 C           7.4896    2.6848    8.6258 C.3     1  UNL1        0.0000
     23 H           7.0475    1.8163    9.1062 H       1  UNL1        0.0000
     24 H           8.1354    3.1843    9.3444 H       1  UNL1        0.0000
     25 H           8.1020    2.3558    7.7912 H       1  UNL1        0.0000
     26 C           7.0509    4.8209    7.4188 C.3     1  UNL1        0.0000
     27 H           6.2984    5.5221    7.0664 H       1  UNL1        0.0000
     28 H           7.6036    4.4512    6.5586 H       1  UNL1        0.0000
     29 H           7.7378    5.3492    8.0749 H       1  UNL1        0.0000
     30 C           5.6622    4.1505    9.4144 C.3     1  UNL1        0.0000
     31 H           5.0675    3.3455    9.8401 H       1  UNL1        0.0000
     32 H           5.0063    4.9877    9.1954 H       1  UNL1        0.0000
     33 H           6.3832    4.4797   10.1581 H       1  UNL1        0.0000
@<TRIPOS>BOND
     1    16    13    1
     2    14    13    1
     3    13    15    1
     4    13     8    1
     5    11     9    1
     6    10     9    1
     7     9     8    1
     8     9    12    1
     9     8    17    1
    10     8     2    1
    11    19    17    1
    12    20    17    1
    13    17    18    1
    14     2     3    1
    15     2     1    1
    16     4     3    1
    17     3     5    2
    18     1     7    1
    19    28    26    1
    20     5     7    1
    21     5     6    1
    22    27    26    1
    23     7    21    1
    24    26    29    1
    25    26    21    1
    26    25    22    1
    27    21    22    1
    28    21    30    1
    29    22    23    1
    30    22    24    1
    31    32    30    1
    32    30    31    1
    33    30    33    1
    34     1     3    0
