@<TRIPOS>MOLECULE
1
 33 34 0 0 0
SMALL
GASTEIGER

@<TRIPOS>ATOM
      1 SI          9.4047   -1.4531    5.0538 Si      1  UNL1        0.0000
      2 N          11.0116   -1.7109    5.6961 N.pl3   1  UNL1        0.0000
      3 C          11.5011   -2.9513    5.3331 C.2     1  UNL1        0.0000
      4 H          12.4490   -3.3024    5.6902 H       1  UNL1        0.0000
      5 C          10.6901   -3.6406    4.5245 C.2     1  UNL1        0.0000
      6 H          10.8977   -4.6210    4.1436 H       1  UNL1        0.0000
      7 N           9.5184   -2.9799    4.2071 N.pl3   1  UNL1        0.0000
      8 C           8.5844   -3.6490    3.3070 C.3     1  UNL1        0.0000
      9 C           7.4974   -2.6844    2.8397 C.3     1  UNL1        0.0000
     10 H           7.9421   -1.8171    2.3594 H       1  UNL1        0.0000
     11 H           6.8528   -3.1837    2.1199 H       1  UNL1        0.0000
     12 H           6.8833   -2.3534    3.6723 H       1  UNL1        0.0000
     13 C           7.9294   -4.8197    4.0505 C.3     1  UNL1        0.0000
     14 H           8.6796   -5.5221    4.4051 H       1  UNL1        0.0000
     15 H           7.3755   -4.4481    4.9091 H       1  UNL1        0.0000
     16 H           7.2429   -5.3472    3.3933 H       1  UNL1        0.0000
     17 C           9.3246   -4.1538    2.0579 C.3     1  UNL1        0.0000
     18 H           9.9200   -3.3496    1.6315 H       1  UNL1        0.0000
     19 H           9.9804   -4.9903    2.2801 H       1  UNL1        0.0000
     20 H           8.6052   -4.4850    1.3134 H       1  UNL1        0.0000
     21 C          11.8452   -0.8782    6.5574 C.3     1  UNL1        0.0000
     22 C          11.2981    0.5452    6.6288 C.3     1  UNL1        0.0000
     23 H          10.3173    0.5648    7.0953 H       1  UNL1        0.0000
     24 H          11.9684    1.1633    7.2217 H       1  UNL1        0.0000
     25 H          11.2263    0.9734    5.6326 H       1  UNL1        0.0000
     26 C          11.8601   -1.4802    7.9680 C.3     1  UNL1        0.0000
     27 H          10.8519   -1.4926    8.3748 H       1  UNL1        0.0000
     28 H          12.2343   -2.5008    7.9499 H       1  UNL1        0.0000
     29 H          12.4945   -0.8894    8.6236 H       1  UNL1        0.0000
     30 C          13.2730   -0.7987    5.9932 C.3     1  UNL1        0.0000
     31 H          13.2389   -0.5335    4.9389 H       1  UNL1        0.0000
     32 H          13.8362   -0.0361    6.5246 H       1  UNL1        0.0000
     33 H          13.8075   -1.7383    6.0972 H       1  UNL1        0.0000
@<TRIPOS>BOND
     1    20    17    1
     2    18    17    1
     3    17    19    1
     4    17     8    1
     5    11     9    1
     6    10     9    1
     7     9     8    1
     8     9    12    1
     9     8    13    1
    10     8     7    1
    11    16    13    1
    12    13    14    1
    13    13    15    1
    14     6     5    1
    15     7     5    1
    16     7     1    1
    17     5     3    2
    18    31    30    1
    19     1     2    1
    20     3     4    1
    21     3     2    1
    22    25    22    1
    23     2    21    1
    24    30    33    1
    25    30    32    1
    26    30    21    1
    27    21    22    1
    28    21    26    1
    29    22    23    1
    30    22    24    1
    31    28    26    1
    32    26    27    1
    33    26    29    1
    34     1     5    0
