@<TRIPOS>MOLECULE
1
 33 34 0 0 0
SMALL
GASTEIGER

@<TRIPOS>ATOM
      1 SI          6.4048    9.3691    9.9948 Si      1  UNL1        0.0000
      2 N           7.2653    9.4852   11.5105 N.pl3   1  UNL1        0.0000
      3 C           6.9548   10.6575   12.1718 C.2     1  UNL1        0.0000
      4 H           7.3423   10.8668   13.1491 H       1  UNL1        0.0000
      5 C           6.1414   11.4677   11.4876 C.2     1  UNL1        0.0000
      6 N           5.7687   10.9756   10.2519 N.pl3   1  UNL1        0.0000
      7 C           4.9042   11.8144    9.4273 C.3     1  UNL1        0.0000
      8 C           3.4966   11.8262   10.0362 C.3     1  UNL1        0.0000
      9 H           3.0914   10.8169   10.0492 H       1  UNL1        0.0000
     10 H           2.8371   12.4601    9.4491 H       1  UNL1        0.0000
     11 H           3.5189   12.1991   11.0572 H       1  UNL1        0.0000
     12 C           5.4682   13.2429    9.3530 C.3     1  UNL1        0.0000
     13 H           6.5224   13.2103    9.0875 H       1  UNL1        0.0000
     14 H           5.3635   13.7752   10.2937 H       1  UNL1        0.0000
     15 H           4.9363   13.8078    8.5920 H       1  UNL1        0.0000
     16 C           4.8254   11.2790    8.0005 C.3     1  UNL1        0.0000
     17 H           5.8197   11.2074    7.5674 H       1  UNL1        0.0000
     18 H           4.2318   11.9553    7.3898 H       1  UNL1        0.0000
     19 H           4.3544   10.3004    7.9761 H       1  UNL1        0.0000
     20 H           5.7875   12.4159   11.8408 H       1  UNL1        0.0000
     21 C           8.1729    8.5566   12.1777 C.3     1  UNL1        0.0000
     22 C           7.4341    7.8955   13.3480 C.3     1  UNL1        0.0000
     23 H           6.5759    7.3401   12.9766 H       1  UNL1        0.0000
     24 H           7.0790    8.6425   14.0537 H       1  UNL1        0.0000
     25 H           8.0946    7.2091   13.8715 H       1  UNL1        0.0000
     26 C           9.4177    9.3041   12.6835 C.3     1  UNL1        0.0000
     27 H           9.1943    9.9507   13.5268 H       1  UNL1        0.0000
     28 H           9.8359    9.9094   11.8825 H       1  UNL1        0.0000
     29 H          10.1692    8.5879   13.0055 H       1  UNL1        0.0000
     30 C           8.6498    7.4740   11.2138 C.3     1  UNL1        0.0000
     31 H           7.8226    6.8506   10.8865 H       1  UNL1        0.0000
     32 H           9.3769    6.8369   11.7120 H       1  UNL1        0.0000
     33 H           9.1239    7.9228   10.3448 H       1  UNL1        0.0000
@<TRIPOS>BOND
     1    18    16    1
     2    17    16    1
     3    19    16    1
     4    16     7    1
     5    15    12    1
     6    13    12    1
     7    12     7    1
     8    12    14    1
     9     7     8    1
    10     7     6    1
    11    10     8    1
    12     1     6    1
    13     1     2    1
    14     8     9    1
    15     8    11    1
    16     6     5    1
    17    33    30    1
    18    31    30    1
    19    30    32    1
    20    30    21    1
    21     5    20    1
    22     5     3    2
    23     2     3    1
    24     2    21    1
    25    28    26    1
    26     3     4    1
    27    21    26    1
    28    21    22    1
    29    26    29    1
    30    26    27    1
    31    23    22    1
    32    22    25    1
    33    22    24    1
    34     1     3    0
