@<TRIPOS>MOLECULE
1
 33 34 0 0 0
SMALL
GASTEIGER

@<TRIPOS>ATOM
      1 SI          5.0177    9.3777    6.9346 Si      1  UNL1        0.0000
      2 N           5.6962   10.9763    6.6851 N.pl3   1  UNL1        0.0000
      3 N           4.2539    9.4937    5.3597 N.pl3   1  UNL1        0.0000
      4 C           5.4043   11.4598    5.4239 C.2     1  UNL1        0.0000
      5 H           5.7929   12.3992    5.0838 H       1  UNL1        0.0000
      6 C           4.6195   10.6532    4.7028 C.2     1  UNL1        0.0000
      7 H           4.2896   10.8546    3.7029 H       1  UNL1        0.0000
      8 C           6.5123   11.8134    7.5597 C.3     1  UNL1        0.0000
      9 C           6.5448   11.2459    8.9769 C.3     1  UNL1        0.0000
     10 H           5.5369   11.1396    9.3688 H       1  UNL1        0.0000
     11 H           7.0964   11.9218    9.6263 H       1  UNL1        0.0000
     12 H           7.0373   10.2778    8.9981 H       1  UNL1        0.0000
     13 C           5.9164   13.2279    7.6373 C.3     1  UNL1        0.0000
     14 H           4.8621   13.1690    7.8976 H       1  UNL1        0.0000
     15 H           6.0106   13.7631    6.6972 H       1  UNL1        0.0000
     16 H           6.4317   13.8036    8.4017 H       1  UNL1        0.0000
     17 C           7.9444   11.8627    7.0125 C.3     1  UNL1        0.0000
     18 H           8.3637   10.8598    6.9875 H       1  UNL1        0.0000
     19 H           8.5689   12.4864    7.6467 H       1  UNL1        0.0000
     20 H           7.9630   12.2666    6.0036 H       1  UNL1        0.0000
     21 C           3.3607    8.5729    4.6627 C.3     1  UNL1        0.0000
     22 C           2.1230    9.3282    4.1532 C.3     1  UNL1        0.0000
     23 H           1.6724    9.8887    4.9689 H       1  UNL1        0.0000
     24 H           1.3914    8.6209    3.7715 H       1  UNL1        0.0000
     25 H           2.3672   10.0196    3.3524 H       1  UNL1        0.0000
     26 C           2.8770    7.4715    5.6030 C.3     1  UNL1        0.0000
     27 H           2.3891    7.9000    6.4742 H       1  UNL1        0.0000
     28 H           3.7038    6.8475    5.9308 H       1  UNL1        0.0000
     29 H           2.1600    6.8398    5.0836 H       1  UNL1        0.0000
     30 C           4.1180    7.9299    3.4941 C.3     1  UNL1        0.0000
     31 H           4.9743    7.3755    3.8706 H       1  UNL1        0.0000
     32 H           4.4775    8.6848    2.7996 H       1  UNL1        0.0000
     33 H           3.4681    7.2451    2.9554 H       1  UNL1        0.0000
@<TRIPOS>BOND
     1    32    30    1
     2    33    30    1
     3    25    22    1
     4    30    31    1
     5    30    21    1
     6     7     6    1
     7    24    22    1
     8    22    21    1
     9    22    23    1
    10    21     3    1
    11    21    26    1
    12     6     3    1
    13     6     4    2
    14    29    26    1
    15     5     4    1
    16     3     1    1
    17     4     2    1
    18    26    28    1
    19    26    27    1
    20    20    17    1
    21     2     1    1
    22     2     8    1
    23    15    13    1
    24    18    17    1
    25    17     8    1
    26    17    19    1
    27     8    13    1
    28     8     9    1
    29    13    14    1
    30    13    16    1
    31     9    12    1
    32     9    10    1
    33     9    11    1
    34     1     6    0
