@<TRIPOS>MOLECULE
1
 35 36 0 0 0
SMALL
GASTEIGER

@<TRIPOS>ATOM
      1 SI          4.3415    4.5548    4.7195 Si      1  UNL1        0.0000
      2 N           3.2149    3.9582    3.5450 N.3     1  UNL1        0.0000
      3 N           3.7840    3.4395    5.9227 N.3     1  UNL1        0.0000
      4 C           2.3114    2.9666    4.0972 C.3     1  UNL1        0.0000
      5 H           2.1148    2.1653    3.3833 H       1  UNL1        0.0000
      6 H           1.3534    3.4321    4.3686 H       1  UNL1        0.0000
      7 C           2.9793    2.3855    5.3322 C.3     1  UNL1        0.0000
      8 H           2.2187    2.0240    6.0232 H       1  UNL1        0.0000
      9 H           3.6161    1.5376    5.0451 H       1  UNL1        0.0000
     10 C           2.8041    4.5917    2.2912 C.3     1  UNL1        0.0000
     11 C           4.0392    5.0278    1.5008 C.3     1  UNL1        0.0000
     12 H           4.5557    5.8418    1.9986 H       1  UNL1        0.0000
     13 H           3.7457    5.3655    0.5099 H       1  UNL1        0.0000
     14 H           4.7262    4.1922    1.3934 H       1  UNL1        0.0000
     15 C           1.9187    5.8094    2.5903 C.3     1  UNL1        0.0000
     16 H           2.4641    6.5347    3.1872 H       1  UNL1        0.0000
     17 H           1.0319    5.5072    3.1430 H       1  UNL1        0.0000
     18 H           1.6026    6.2848    1.6654 H       1  UNL1        0.0000
     19 C           2.0173    3.6238    1.3939 C.3     1  UNL1        0.0000
     20 H           2.5906    2.7183    1.2101 H       1  UNL1        0.0000
     21 H           1.8302    4.1043    0.4368 H       1  UNL1        0.0000
     22 H           1.0552    3.3603    1.8248 H       1  UNL1        0.0000
     23 C           4.2721    3.1959    7.2773 C.3     1  UNL1        0.0000
     24 C           4.8074    4.4926    7.8829 C.3     1  UNL1        0.0000
     25 H           5.7086    4.8188    7.3740 H       1  UNL1        0.0000
     26 H           5.0486    4.3382    8.9319 H       1  UNL1        0.0000
     27 H           4.0581    5.2765    7.8120 H       1  UNL1        0.0000
     28 C           5.3914    2.1454    7.2623 C.3     1  UNL1        0.0000
     29 H           6.2030    2.4728    6.6180 H       1  UNL1        0.0000
     30 H           5.0224    1.1902    6.8963 H       1  UNL1        0.0000
     31 H           5.7806    1.9995    8.2666 H       1  UNL1        0.0000
     32 C           3.1318    2.7097    8.1901 C.3     1  UNL1        0.0000
     33 H           2.2578    3.3456    8.0708 H       1  UNL1        0.0000
     34 H           3.4535    2.7631    9.2268 H       1  UNL1        0.0000
     35 H           2.8565    1.6782    7.9867 H       1  UNL1        0.0000
@<TRIPOS>BOND
     1    21    19    1
     2    13    11    1
     3    20    19    1
     4    14    11    1
     5    19    22    1
     6    19    10    1
     7    11    12    1
     8    11    10    1
     9    18    15    1
    10    10    15    1
    11    10     2    1
    12    15    17    1
    13    15    16    1
    14     5     4    1
    15     2     4    1
    16     2     1    1
    17     4     6    1
    18     4     7    1
    19     1     3    1
    20     9     7    1
    21     7     3    1
    22     7     8    1
    23     3    23    1
    24    29    28    1
    25    30    28    1
    26    28    23    1
    27    28    31    1
    28    23    24    1
    29    23    32    1
    30    25    24    1
    31    27    24    1
    32    24    26    1
    33    35    32    1
    34    33    32    1
    35    32    34    1
    36     1     7    0
