@<TRIPOS>MOLECULE
1
 33 34 0 0 0
SMALL
GASTEIGER

@<TRIPOS>ATOM
      1 SI          6.4168    5.5341    9.7126 Si      1  UNL1        0.0000
      2 N           5.7369    3.9364    9.9634 N.pl3   1  UNL1        0.0000
      3 C           6.0281    3.4536   11.2250 C.2     1  UNL1        0.0000
      4 H           5.6388    2.5146   11.5657 H       1  UNL1        0.0000
      5 C           6.8129    4.2604   11.9459 C.2     1  UNL1        0.0000
      6 N           7.1792    5.4193   11.2885 N.pl3   1  UNL1        0.0000
      7 C           8.0723    6.3403   11.9856 C.3     1  UNL1        0.0000
      8 C           9.3098    5.5851   12.4957 C.3     1  UNL1        0.0000
      9 H           9.7603    5.0243   11.6800 H       1  UNL1        0.0000
     10 H          10.0417    6.2921   12.8773 H       1  UNL1        0.0000
     11 H           9.0654    4.8937   13.2964 H       1  UNL1        0.0000
     12 C           8.5566    7.4416   11.0455 C.3     1  UNL1        0.0000
     13 H           9.0444    7.0129   10.1743 H       1  UNL1        0.0000
     14 H           7.7300    8.0658   10.7176 H       1  UNL1        0.0000
     15 H           9.2737    8.0732   11.5649 H       1  UNL1        0.0000
     16 C           7.3154    6.9838   13.1543 C.3     1  UNL1        0.0000
     17 H           6.4592    7.5381   12.7775 H       1  UNL1        0.0000
     18 H           6.9556    6.2290   13.8489 H       1  UNL1        0.0000
     19 H           7.9652    7.6686   13.6929 H       1  UNL1        0.0000
     20 H           7.1421    4.0596   12.9462 H       1  UNL1        0.0000
     21 C           4.9206    3.0994    9.0891 C.3     1  UNL1        0.0000
     22 C           4.8885    3.6668    7.6719 C.3     1  UNL1        0.0000
     23 H           5.8965    3.7729    7.2800 H       1  UNL1        0.0000
     24 H           4.3368    2.9908    7.0226 H       1  UNL1        0.0000
     25 H           4.3962    4.6350    7.6504 H       1  UNL1        0.0000
     26 C           5.5167    1.6849    9.0121 C.3     1  UNL1        0.0000
     27 H           6.5710    1.7437    8.7518 H       1  UNL1        0.0000
     28 H           5.4223    1.1500    9.9523 H       1  UNL1        0.0000
     29 H           5.0013    1.1093    8.2477 H       1  UNL1        0.0000
     30 C           3.4886    3.0509    9.6364 C.3     1  UNL1        0.0000
     31 H           3.0695    4.0538    9.6611 H       1  UNL1        0.0000
     32 H           2.8640    2.4271    9.0023 H       1  UNL1        0.0000
     33 H           3.4699    2.6472   10.6454 H       1  UNL1        0.0000
@<TRIPOS>BOND
     1    24    22    1
     2    23    22    1
     3    25    22    1
     4    22    21    1
     5    29    26    1
     6    27    26    1
     7    32    30    1
     8    26    21    1
     9    26    28    1
    10    21    30    1
    11    21     2    1
    12    30    31    1
    13    30    33    1
    14     1     2    1
    15     1     6    1
    16     2     3    1
    17    13    12    1
    18    14    12    1
    19    12    15    1
    20    12     7    1
    21     3     4    1
    22     3     5    2
    23     6     5    1
    24     6     7    1
    25     9     8    1
    26     5    20    1
    27     7     8    1
    28     7    16    1
    29     8    10    1
    30     8    11    1
    31    17    16    1
    32    16    19    1
    33    16    18    1
    34     1     3    0
