@<TRIPOS>MOLECULE
1
 33 34 0 0 0
SMALL
GASTEIGER

@<TRIPOS>ATOM
      1 SI          5.0493    5.5690    7.1071 Si      1  UNL1        0.0000
      2 N           4.1887    5.4529    5.5914 N.pl3   1  UNL1        0.0000
      3 N           5.6853    3.9625    6.8501 N.pl3   1  UNL1        0.0000
      4 C           4.4992    4.2805    4.9302 C.2     1  UNL1        0.0000
      5 H           4.1116    4.0712    3.9529 H       1  UNL1        0.0000
      6 C           5.3126    3.4704    5.6144 C.2     1  UNL1        0.0000
      7 H           5.6664    2.5221    5.2613 H       1  UNL1        0.0000
      8 C           3.2811    6.3815    4.9243 C.3     1  UNL1        0.0000
      9 C           4.0198    7.0425    3.7540 C.3     1  UNL1        0.0000
     10 H           4.8780    7.5979    4.1254 H       1  UNL1        0.0000
     11 H           4.3749    6.2955    3.0483 H       1  UNL1        0.0000
     12 H           3.3594    7.7289    3.2304 H       1  UNL1        0.0000
     13 C           2.0363    5.6339    4.4185 C.3     1  UNL1        0.0000
     14 H           2.2597    4.9873    3.5752 H       1  UNL1        0.0000
     15 H           1.6181    5.0286    5.2195 H       1  UNL1        0.0000
     16 H           1.2847    6.3501    4.0965 H       1  UNL1        0.0000
     17 C           2.8042    7.4641    5.8882 C.3     1  UNL1        0.0000
     18 H           3.6314    8.0875    6.2154 H       1  UNL1        0.0000
     19 H           2.0770    8.1011    5.3900 H       1  UNL1        0.0000
     20 H           2.3301    7.0152    6.7572 H       1  UNL1        0.0000
     21 C           6.5497    3.1237    7.6748 C.3     1  UNL1        0.0000
     22 C           7.9573    3.1118    7.0659 C.3     1  UNL1        0.0000
     23 H           8.3626    4.1210    7.0529 H       1  UNL1        0.0000
     24 H           8.6168    2.4779    7.6530 H       1  UNL1        0.0000
     25 H           7.9350    2.7388    6.0449 H       1  UNL1        0.0000
     26 C           5.9857    1.6952    7.7490 C.3     1  UNL1        0.0000
     27 H           4.9315    1.7277    8.0146 H       1  UNL1        0.0000
     28 H           6.0904    1.1629    6.8083 H       1  UNL1        0.0000
     29 H           6.5176    1.1302    8.5101 H       1  UNL1        0.0000
     30 C           6.6285    3.6591    9.1015 C.3     1  UNL1        0.0000
     31 H           5.6343    3.7307    9.5346 H       1  UNL1        0.0000
     32 H           7.2221    2.9827    9.7122 H       1  UNL1        0.0000
     33 H           7.0995    4.6376    9.1260 H       1  UNL1        0.0000
@<TRIPOS>BOND
     1    11     9    1
     2    12     9    1
     3    14    13    1
     4     9    10    1
     5     9     8    1
     6     5     4    1
     7    16    13    1
     8    13     8    1
     9    13    15    1
    10     8     2    1
    11     8    17    1
    12     4     2    1
    13     4     6    2
    14     7     6    1
    15    19    17    1
    16     2     1    1
    17     6     3    1
    18    17    18    1
    19    17    20    1
    20    25    22    1
    21    28    26    1
    22     3     1    1
    23     3    21    1
    24    23    22    1
    25    22    24    1
    26    22    21    1
    27    21    26    1
    28    21    30    1
    29    26    27    1
    30    26    29    1
    31    30    33    1
    32    30    31    1
    33    30    32    1
    34     1     6    0
