@<TRIPOS>MOLECULE
1
 35 36 0 0 0
SMALL
GASTEIGER

@<TRIPOS>ATOM
      1 SI          8.0518    7.8677    4.5161 Si      1  UNL1        0.0000
      2 N           9.1781    8.4647    5.6907 N.3     1  UNL1        0.0000
      3 C          10.0816    9.4564    5.1385 C.3     1  UNL1        0.0000
      4 H          10.2781   10.2577    5.8524 H       1  UNL1        0.0000
      5 H          11.0396    8.9909    4.8671 H       1  UNL1        0.0000
      6 C           9.4136   10.0374    3.9036 C.3     1  UNL1        0.0000
      7 N           8.6090    8.9833    3.3131 N.3     1  UNL1        0.0000
      8 C           8.1210    9.2269    1.9585 C.3     1  UNL1        0.0000
      9 C           7.5856    7.9302    1.3530 C.3     1  UNL1        0.0000
     10 H           6.6844    7.6041    1.8619 H       1  UNL1        0.0000
     11 H           7.3443    8.0845    0.3040 H       1  UNL1        0.0000
     12 H           8.3348    7.1463    1.4240 H       1  UNL1        0.0000
     13 C           7.0017   10.2775    1.9733 C.3     1  UNL1        0.0000
     14 H           6.1901    9.9502    2.6177 H       1  UNL1        0.0000
     15 H           7.3708   11.2327    2.3393 H       1  UNL1        0.0000
     16 H           6.6126   10.4233    0.9691 H       1  UNL1        0.0000
     17 C           9.2613    9.7130    1.0457 C.3     1  UNL1        0.0000
     18 H          10.1353    9.0770    1.1652 H       1  UNL1        0.0000
     19 H           8.9396    9.6594    0.0090 H       1  UNL1        0.0000
     20 H           9.5366   10.7445    1.2490 H       1  UNL1        0.0000
     21 H          10.1741   10.3991    3.2126 H       1  UNL1        0.0000
     22 H           8.7767   10.8853    4.1908 H       1  UNL1        0.0000
     23 C           9.5889    7.8314    6.9446 C.3     1  UNL1        0.0000
     24 C           8.3539    7.3953    7.7351 C.3     1  UNL1        0.0000
     25 H           7.8375    6.5812    7.2374 H       1  UNL1        0.0000
     26 H           8.6474    7.0578    8.7261 H       1  UNL1        0.0000
     27 H           7.6668    8.2308    7.8424 H       1  UNL1        0.0000
     28 C          10.4745    6.6138    6.6457 C.3     1  UNL1        0.0000
     29 H           9.9292    5.8883    6.0488 H       1  UNL1        0.0000
     30 H          11.3613    6.9160    6.0930 H       1  UNL1        0.0000
     31 H          10.7905    6.1384    7.5706 H       1  UNL1        0.0000
     32 C          10.3757    8.7995    7.8419 C.3     1  UNL1        0.0000
     33 H           9.8023    9.7050    8.0256 H       1  UNL1        0.0000
     34 H          10.5629    8.3190    8.7990 H       1  UNL1        0.0000
     35 H          11.3378    9.0629    7.4110 H       1  UNL1        0.0000
@<TRIPOS>BOND
     1    19    17    1
     2    11     9    1
     3    16    13    1
     4    17    18    1
     5    17    20    1
     6    17     8    1
     7     9    12    1
     8     9    10    1
     9     9     8    1
    10     8    13    1
    11     8     7    1
    12    13    15    1
    13    13    14    1
    14    21     6    1
    15     7     6    1
    16     7     1    1
    17     6    22    1
    18     6     3    1
    19     1     2    1
    20     5     3    1
    21     3     2    1
    22     3     4    1
    23     2    23    1
    24    29    28    1
    25    30    28    1
    26    28    23    1
    27    28    31    1
    28    23    24    1
    29    23    32    1
    30    25    24    1
    31    35    32    1
    32    24    27    1
    33    24    26    1
    34    32    33    1
    35    32    34    1
    36     1     6    0
