@<TRIPOS>MOLECULE
1
 33 34 0 0 0
SMALL
GASTEIGER

@<TRIPOS>ATOM
      1 SI          7.5108    3.0790    2.5612 Si      1  UNL1        0.0000
      2 N           6.2882    4.3321    2.6588 N.pl3   1  UNL1        0.0000
      3 C           6.8445    5.5938    2.6158 C.2     1  UNL1        0.0000
      4 H           6.2356    6.4745    2.6679 H       1  UNL1        0.0000
      5 C           4.8346    4.2524    2.7853 C.3     1  UNL1        0.0000
      6 C           4.3583    2.8034    2.7787 C.3     1  UNL1        0.0000
      7 H           4.6361    2.3109    1.8515 H       1  UNL1        0.0000
      8 H           3.2749    2.7783    2.8683 H       1  UNL1        0.0000
      9 H           4.7823    2.2526    3.6130 H       1  UNL1        0.0000
     10 C           4.4066    4.8929    4.1128 C.3     1  UNL1        0.0000
     11 H           4.6690    5.9462    4.1523 H       1  UNL1        0.0000
     12 H           4.8978    4.3860    4.9402 H       1  UNL1        0.0000
     13 H           3.3309    4.8038    4.2390 H       1  UNL1        0.0000
     14 C           4.1771    4.9732    1.5998 C.3     1  UNL1        0.0000
     15 H           4.5399    4.5502    0.6659 H       1  UNL1        0.0000
     16 H           4.3944    6.0372    1.6021 H       1  UNL1        0.0000
     17 H           3.0984    4.8479    1.6426 H       1  UNL1        0.0000
     18 C           8.1770    5.5938    2.5065 C.2     1  UNL1        0.0000
     19 N           8.7334    4.3321    2.4638 N.pl3   1  UNL1        0.0000
     20 C          10.1870    4.2524    2.3378 C.3     1  UNL1        0.0000
     21 C          10.6634    2.8034    2.3452 C.3     1  UNL1        0.0000
     22 H          10.3853    2.3113    3.2726 H       1  UNL1        0.0000
     23 H          11.7468    2.7784    2.2559 H       1  UNL1        0.0000
     24 H          10.2396    2.2522    1.5111 H       1  UNL1        0.0000
     25 C          10.6151    4.8922    1.0100 C.3     1  UNL1        0.0000
     26 H          10.3524    5.9454    0.9698 H       1  UNL1        0.0000
     27 H          10.1244    4.3846    0.1827 H       1  UNL1        0.0000
     28 H          11.6909    4.8034    0.8841 H       1  UNL1        0.0000
     29 C          10.8442    4.9739    3.5230 C.3     1  UNL1        0.0000
     30 H          10.4810    4.5515    4.4571 H       1  UNL1        0.0000
     31 H          10.6271    6.0380    3.5200 H       1  UNL1        0.0000
     32 H          11.9229    4.8483    3.4807 H       1  UNL1        0.0000
     33 H           8.7859    6.4745    2.4543 H       1  UNL1        0.0000
@<TRIPOS>BOND
     1    27    25    1
     2    15    14    1
     3    28    25    1
     4    26    25    1
     5    25    20    1
     6    24    21    1
     7    14    16    1
     8    14    17    1
     9    14     5    1
    10     7     6    1
    11    23    21    1
    12    20    21    1
    13    20    19    1
    14    20    29    1
    15    21    22    1
    16    33    18    1
    17    19    18    1
    18    19     1    1
    19    18     3    2
    20     1     2    1
    21     3     2    1
    22     3     4    1
    23     2     5    1
    24     6     5    1
    25     6     8    1
    26     6     9    1
    27     5    10    1
    28    32    29    1
    29    31    29    1
    30    29    30    1
    31    10    11    1
    32    10    13    1
    33    10    12    1
    34     1    18    0
