@<TRIPOS>MOLECULE
1
 36 37 0 0 0
SMALL
GASTEIGER

@<TRIPOS>ATOM
      1 SI         -0.4579   17.5080    4.6705 Si      1  UNL1        0.0000
      2 C          -1.5830   16.7968    3.2273 C.3     1  UNL1        0.0000
      3 C          -3.0470   16.6625    3.6521 C.3     1  UNL1        0.0000
      4 C          -1.5043   17.7025    1.9997 C.3     1  UNL1        0.0000
      5 C          -1.0358   15.4167    2.8582 C.3     1  UNL1        0.0000
      6 C          -0.8083   16.3179    6.1392 C.ar    1  UNL1        0.0000
      7 C          -1.9878   16.3550    6.8788 C.ar    1  UNL1        0.0000
      8 C          -2.2168   15.4691    7.9175 C.ar    1  UNL1        0.0000
      9 C          -1.2707   14.5101    8.2348 C.ar    1  UNL1        0.0000
     10 C          -0.1029   14.4365    7.4940 C.ar    1  UNL1        0.0000
     11 C           0.1199   15.3292    6.4613 C.ar    1  UNL1        0.0000
     12 C          -0.9899   19.3086    5.0636 C.ar    1  UNL1        0.0000
     13 C          -1.6008   19.7227    6.2439 C.ar    1  UNL1        0.0000
     14 C          -1.8938   21.0563    6.4744 C.ar    1  UNL1        0.0000
     15 C          -1.5808   22.0105    5.5227 C.ar    1  UNL1        0.0000
     16 C          -0.9629   21.6204    4.3450 C.ar    1  UNL1        0.0000
     17 C          -0.6662   20.2887    4.1240 C.ar    1  UNL1        0.0000
     18 H          -3.4482   17.6228    3.9673 H       1  UNL1        0.0000
     19 H          -3.1492   15.9568    4.4720 H       1  UNL1        0.0000
     20 H          -3.6461   16.3009    2.8174 H       1  UNL1        0.0000
     21 H          -1.9718   18.6635    2.1990 H       1  UNL1        0.0000
     22 H          -2.0235   17.2425    1.1598 H       1  UNL1        0.0000
     23 H          -0.4639   17.8580    1.7227 H       1  UNL1        0.0000
     24 H           0.0038   15.5075    2.5506 H       1  UNL1        0.0000
     25 H          -1.6110   14.9879    2.0388 H       1  UNL1        0.0000
     26 H          -1.0960   14.7373    3.7056 H       1  UNL1        0.0000
     27 H          -2.7477   17.0803    6.6321 H       1  UNL1        0.0000
     28 H          -3.1384   15.5241    8.4793 H       1  UNL1        0.0000
     29 H          -1.4453   13.8196    9.0470 H       1  UNL1        0.0000
     30 H           0.6335   13.6792    7.7243 H       1  UNL1        0.0000
     31 H           1.0270   15.2558    5.8761 H       1  UNL1        0.0000
     32 H          -1.8444   18.9978    7.0056 H       1  UNL1        0.0000
     33 H          -2.3640   21.3513    7.4017 H       1  UNL1        0.0000
     34 H          -1.8086   23.0516    5.7006 H       1  UNL1        0.0000
     35 H          -0.7082   22.3616    3.6009 H       1  UNL1        0.0000
     36 H          -0.1678   19.9961    3.2102 H       1  UNL1        0.0000
@<TRIPOS>BOND
     1    22     4    1
     2    23     4    1
     3     4    21    1
     4     4     2    1
     5    25     5    1
     6    24     5    1
     7    20     3    1
     8     5     2    1
     9     5    26    1
    10    36    17    1
    11     2     3    1
    12     2     1    1
    13    35    16    1
    14     3    18    1
    15     3    19    1
    16    17    16   ar
    17    17    12   ar
    18    16    15   ar
    19     1    12    1
    20     1     6    1
    21    12    13   ar
    22    15    34    1
    23    15    14   ar
    24    31    11    1
    25     6    11   ar
    26     6     7   ar
    27    13    14   ar
    28    13    32    1
    29    11    10   ar
    30    14    33    1
    31    27     7    1
    32     7     8   ar
    33    10    30    1
    34    10     9   ar
    35     8     9   ar
    36     8    28    1
    37     9    29    1
