@<TRIPOS>MOLECULE
1
 30 30 0 0 0
SMALL
GASTEIGER

@<TRIPOS>ATOM
      1 SI          5.5109    2.1779    9.3093 Si      1  UNL1        0.0000
      2 N           8.1342    3.4339    9.7999 N.pl3   1  UNL1        0.0000
      3 N           6.7336    4.8759    9.0360 N.pl3   1  UNL1        0.0000
      4 C           7.8649    5.5746    9.3873 C.2     1  UNL1        0.0000
      5 C           6.9078    3.5684    9.2753 C.3     1  UNL1        0.0000
      6 C           6.4819    0.6720    8.5582 C.3     1  UNL1        0.0000
      7 H           5.7669   -0.0040    8.1009 H       1  UNL1        0.0000
      8 H           7.0190    0.0962    9.3032 H       1  UNL1        0.0000
      9 H           7.1838    0.9698    7.7836 H       1  UNL1        0.0000
     10 C           4.4726    2.5943    7.7238 C.3     1  UNL1        0.0000
     11 H           5.0900    2.8976    6.8827 H       1  UNL1        0.0000
     12 H           3.7186    3.3554    7.8899 H       1  UNL1        0.0000
     13 H           3.9426    1.6958    7.4245 H       1  UNL1        0.0000
     14 C          10.1303    4.8449   10.3978 C.3     1  UNL1        0.0000
     15 H          10.4506    5.8707   10.2425 H       1  UNL1        0.0000
     16 H          10.8322    4.1833    9.8916 H       1  UNL1        0.0000
     17 H          10.1663    4.6379   11.4674 H       1  UNL1        0.0000
     18 C           8.7538    4.6597    9.8714 C.2     1  UNL1        0.0000
     19 C           8.6820    2.2104   10.3132 C.3     1  UNL1        0.0000
     20 H           7.9255    1.7079   10.9175 H       1  UNL1        0.0000
     21 H           9.5453    2.4300   10.9360 H       1  UNL1        0.0000
     22 H           8.9840    1.5494    9.5016 H       1  UNL1        0.0000
     23 C           5.5111    5.4786    8.5843 C.3     1  UNL1        0.0000
     24 H           5.3547    5.2904    7.5224 H       1  UNL1        0.0000
     25 H           5.5491    6.5511    8.7567 H       1  UNL1        0.0000
     26 H           4.6769    5.0590    9.1456 H       1  UNL1        0.0000
     27 C           7.9893    7.0471    9.2404 C.3     1  UNL1        0.0000
     28 H           9.0064    7.3562    9.4618 H       1  UNL1        0.0000
     29 H           7.3218    7.5599    9.9331 H       1  UNL1        0.0000
     30 H           7.7464    7.3597    8.2256 H       1  UNL1        0.0000
@<TRIPOS>BOND
     1    11    10    1
     2    13    10    1
     3    24    23    1
     4    10    12    1
     5    10     1    1
     6     9     6    1
     7     7     6    1
     8    30    27    1
     9     6     8    1
    10     6     1    1
    11    23    25    1
    12    23     3    1
    13    23    26    1
    14     3     5    1
    15     3     4    1
    16    27     4    1
    17    27    28    1
    18    27    29    1
    19     5     1    1
    20     5     2    1
    21     4    18    2
    22    22    19    1
    23     2    18    1
    24     2    19    1
    25    18    14    1
    26    16    14    1
    27    15    14    1
    28    19    20    1
    29    19    21    1
    30    14    17    1
