@<TRIPOS>MOLECULE
1
 24 24 0 0 0
SMALL
GASTEIGER

@<TRIPOS>ATOM
      1 SI          3.5478    2.9458    4.3613 Si      1  UNL1        0.0000
      2 CL          2.3587    4.2878    3.2252 Cl      1  UNL1        0.0000
      3 CL          5.1551    4.1734    4.9783 Cl      1  UNL1        0.0000
      4 N           4.7242    1.0021    2.4093 N.pl3   1  UNL1        0.0000
      5 N           5.2820    3.0203    1.9115 N.pl3   1  UNL1        0.0000
      6 C           4.5516    2.2844    2.7620 C.3     1  UNL1        0.0000
      7 C           5.5820    0.9208    1.3393 C.2     1  UNL1        0.0000
      8 C           5.9376    2.2018    1.0273 C.2     1  UNL1        0.0000
      9 C           4.1268   -0.1678    2.9899 C.3     1  UNL1        0.0000
     10 H           3.4058    0.1184    3.7551 H       1  UNL1        0.0000
     11 H           4.8952   -0.7924    3.4482 H       1  UNL1        0.0000
     12 H           3.6201   -0.7440    2.2151 H       1  UNL1        0.0000
     13 C           5.4058    4.4520    1.8745 C.3     1  UNL1        0.0000
     14 H           4.5302    4.9103    2.3239 H       1  UNL1        0.0000
     15 H           5.4892    4.7787    0.8396 H       1  UNL1        0.0000
     16 H           6.2905    4.7683    2.4280 H       1  UNL1        0.0000
     17 C           5.9708   -0.3732    0.7276 C.3     1  UNL1        0.0000
     18 H           6.6943   -0.2105   -0.0650 H       1  UNL1        0.0000
     19 H           5.1027   -0.8769    0.3031 H       1  UNL1        0.0000
     20 H           6.4130   -1.0332    1.4727 H       1  UNL1        0.0000
     21 C           6.8451    2.7202   -0.0261 C.3     1  UNL1        0.0000
     22 H           7.3401    1.8957   -0.5299 H       1  UNL1        0.0000
     23 H           7.6041    3.3687    0.4084 H       1  UNL1        0.0000
     24 H           6.2913    3.2920   -0.7707 H       1  UNL1        0.0000
@<TRIPOS>BOND
     1    24    21    1
     2    22    21    1
     3    18    17    1
     4    21    23    1
     5    21     8    1
     6    19    17    1
     7    17     7    1
     8    17    20    1
     9    15    13    1
    10     8     7    2
    11     8     5    1
    12     7     4    1
    13    13     5    1
    14    13    14    1
    15    13    16    1
    16     5     6    1
    17    12     9    1
    18     4     6    1
    19     4     9    1
    20     6     1    1
    21     9    11    1
    22     9    10    1
    23     2     1    1
    24     1     3    1
