@<TRIPOS>MOLECULE
1
 10 9 0 0 0
SMALL
GASTEIGER

@<TRIPOS>ATOM
      1 SI          1.0105    3.2685    7.8685 Si      1  UNL1        0.0000
      2 F           2.4815    2.5214    8.0313 F       1  UNL1        0.0000
      3 C           1.0903    3.8767    6.0447 C.3     1  UNL1        0.0000
      4 C          -0.2473    1.8208    7.8979 C.3     1  UNL1        0.0000
      5 H           1.1451    3.0289    5.3680 H       1  UNL1        0.0000
      6 H           0.2133    4.4573    5.7754 H       1  UNL1        0.0000
      7 H           1.9666    4.4904    5.8579 H       1  UNL1        0.0000
      8 H           0.1301    0.9632    7.3474 H       1  UNL1        0.0000
      9 H          -0.4530    1.5033    8.9160 H       1  UNL1        0.0000
     10 H          -1.1916    2.1136    7.4501 H       1  UNL1        0.0000
@<TRIPOS>BOND
     1     5     3    1
     2     6     3    1
     3     7     3    1
     4     3     1    1
     5     8     4    1
     6    10     4    1
     7     1     4    1
     8     1     2    1
     9     4     9    1
