@<TRIPOS>MOLECULE
1
 24 24 0 0 0
SMALL
GASTEIGER

@<TRIPOS>ATOM
      1 SI          4.2551    7.0213    0.3670 Si      1  UNL1        0.0000
      2 H           4.3662    8.1112    1.3821 H       1  UNL1        0.0000
      3 H           4.1193    7.9199   -0.8174 H       1  UNL1        0.0000
      4 N           1.6732    6.5461    1.7232 N.pl3   1  UNL1        0.0000
      5 N           1.5823    6.1884   -0.3944 N.pl3   1  UNL1        0.0000
      6 C           2.3622    6.6680    0.5828 C.3     1  UNL1        0.0000
      7 C           2.1465    6.8652    3.0396 C.3     1  UNL1        0.0000
      8 H           3.0359    7.4824    2.9632 H       1  UNL1        0.0000
      9 H           2.3980    5.9485    3.5773 H       1  UNL1        0.0000
     10 H           1.3764    7.4020    3.5933 H       1  UNL1        0.0000
     11 C           0.4457    5.9764    1.4718 C.2     1  UNL1        0.0000
     12 C          -0.5313    5.6950    2.5522 C.3     1  UNL1        0.0000
     13 H          -1.4086    5.2014    2.1457 H       1  UNL1        0.0000
     14 H          -0.8480    6.6168    3.0406 H       1  UNL1        0.0000
     15 H          -0.0854    5.0455    3.3045 H       1  UNL1        0.0000
     16 C           0.3861    5.7511    0.1275 C.2     1  UNL1        0.0000
     17 C          -0.6943    5.1569   -0.7005 C.3     1  UNL1        0.0000
     18 H          -1.5467    4.9129   -0.0739 H       1  UNL1        0.0000
     19 H          -0.3513    4.2421   -1.1831 H       1  UNL1        0.0000
     20 H          -1.0232    5.8543   -1.4706 H       1  UNL1        0.0000
     21 C           1.9914    6.0762   -1.7653 C.3     1  UNL1        0.0000
     22 H           2.3102    7.0474   -2.1417 H       1  UNL1        0.0000
     23 H           1.1683    5.7054   -2.3698 H       1  UNL1        0.0000
     24 H           2.8372    5.3873   -1.8384 H       1  UNL1        0.0000
@<TRIPOS>BOND
     1    23    21    1
     2    22    21    1
     3    24    21    1
     4    21     5    1
     5    20    17    1
     6    19    17    1
     7     3     1    1
     8    17    18    1
     9    17    16    1
    10     5    16    1
    11     5     6    1
    12    16    11    2
    13     1     6    1
    14     1     2    1
    15     6     4    1
    16    11     4    1
    17    11    12    1
    18     4     7    1
    19    13    12    1
    20    12    14    1
    21    12    15    1
    22     8     7    1
    23     7     9    1
    24     7    10    1
