@<TRIPOS>MOLECULE
1
 45 47 0 0 0
SMALL
GASTEIGER

@<TRIPOS>ATOM
      1 SI         10.0070   10.7218   13.3314 Si      1  UNL1        0.0000
      2 N          10.1880   12.2233   12.4577 N.pl3   1  UNL1        0.0000
      3 N           8.6997   10.2888   12.2606 N.pl3   1  UNL1        0.0000
      4 C           9.1951   12.4238   11.5212 C.ar    1  UNL1        0.0000
      5 C           8.9501   13.5610   10.7663 C.ar    1  UNL1        0.0000
      6 H           9.5939   14.4221   10.8374 H       1  UNL1        0.0000
      7 C           7.8514   13.5998    9.9253 C.ar    1  UNL1        0.0000
      8 H           7.6614   14.4864    9.3380 H       1  UNL1        0.0000
      9 C           6.9908   12.5181    9.8395 C.ar    1  UNL1        0.0000
     10 H           6.1273   12.5653    9.1926 H       1  UNL1        0.0000
     11 C           7.2239   11.3742   10.5832 C.ar    1  UNL1        0.0000
     12 H           6.5332   10.5491   10.5190 H       1  UNL1        0.0000
     13 C           8.3312   11.3133   11.4165 C.ar    1  UNL1        0.0000
     14 C          11.2293   13.1953   12.6819 C.3     1  UNL1        0.0000
     15 H          11.5366   13.1122   13.7262 H       1  UNL1        0.0000
     16 H          10.8247   14.1988   12.5316 H       1  UNL1        0.0000
     17 C          12.4939   13.0116   11.8118 C.3     1  UNL1        0.0000
     18 C          13.1323   11.6568   12.1082 C.3     1  UNL1        0.0000
     19 H          12.4854   10.8421   11.7899 H       1  UNL1        0.0000
     20 H          13.3113   11.5608   13.1743 H       1  UNL1        0.0000
     21 H          14.0815   11.5648   11.5847 H       1  UNL1        0.0000
     22 C          12.1778   13.1112   10.3195 C.3     1  UNL1        0.0000
     23 H          11.8095   14.1014   10.0628 H       1  UNL1        0.0000
     24 H          11.4274   12.3785   10.0337 H       1  UNL1        0.0000
     25 H          13.0780   12.9252    9.7368 H       1  UNL1        0.0000
     26 C          13.4748   14.1198   12.2043 C.3     1  UNL1        0.0000
     27 H          14.3892   14.0413   11.6209 H       1  UNL1        0.0000
     28 H          13.7298   14.0382   13.2579 H       1  UNL1        0.0000
     29 H          13.0407   15.1021   12.0286 H       1  UNL1        0.0000
     30 C           8.0761    8.9903   12.2231 C.3     1  UNL1        0.0000
     31 H           7.0020    9.0962   12.0512 H       1  UNL1        0.0000
     32 H           8.2091    8.5469   13.2120 H       1  UNL1        0.0000
     33 C           8.6701    8.0170   11.1747 C.3     1  UNL1        0.0000
     34 C           8.1513    8.3196    9.7675 C.3     1  UNL1        0.0000
     35 H           7.0679    8.2283    9.7252 H       1  UNL1        0.0000
     36 H           8.5762    7.6143    9.0558 H       1  UNL1        0.0000
     37 H           8.4300    9.3239    9.4596 H       1  UNL1        0.0000
     38 C          10.1951    8.1037   11.1695 C.3     1  UNL1        0.0000
     39 H          10.6127    7.3110   10.5532 H       1  UNL1        0.0000
     40 H          10.5889    7.9981   12.1766 H       1  UNL1        0.0000
     41 H          10.5251    9.0582   10.7667 H       1  UNL1        0.0000
     42 C           8.2438    6.6019   11.5736 C.3     1  UNL1        0.0000
     43 H           7.1602    6.5316   11.6377 H       1  UNL1        0.0000
     44 H           8.6633    6.3421   12.5412 H       1  UNL1        0.0000
     45 H           8.5919    5.8790   10.8391 H       1  UNL1        0.0000
@<TRIPOS>BOND
     1    36    34    1
     2    10     9    1
     3     8     7    1
     4    37    34    1
     5    35    34    1
     6    25    22    1
     7    34    33    1
     8     9     7   ar
     9     9    11   ar
    10     7     5   ar
    11    24    22    1
    12    23    22    1
    13    22    17    1
    14    12    11    1
    15    39    38    1
    16    11    13   ar
    17     5     6    1
    18     5     4   ar
    19    41    38    1
    20    45    42    1
    21    38    33    1
    22    38    40    1
    23    33    42    1
    24    33    30    1
    25    13     4   ar
    26    13     3    1
    27     4     2    1
    28    42    43    1
    29    42    44    1
    30    21    18    1
    31    27    26    1
    32    19    18    1
    33    17    18    1
    34    17    26    1
    35    17    14    1
    36    29    26    1
    37    31    30    1
    38    18    20    1
    39    26    28    1
    40    30     3    1
    41    30    32    1
    42     3     1    1
    43     2    14    1
    44     2     1    1
    45    16    14    1
    46    14    15    1
    47     1    13    0
