@<TRIPOS>MOLECULE
1
 45 47 0 0 0
SMALL
GASTEIGER

@<TRIPOS>ATOM
      1 SI         14.8774   10.3733    6.3544 Si      1  UNL1        0.0000
      2 N          14.2232   11.5200    5.2044 N.pl3   1  UNL1        0.0000
      3 N          16.4377   11.1454    6.1749 N.pl3   1  UNL1        0.0000
      4 C          15.1827   12.3122    4.6159 C.ar    1  UNL1        0.0000
      5 C          15.0301   13.2093    3.5697 C.ar    1  UNL1        0.0000
      6 H          14.0633   13.3860    3.1277 H       1  UNL1        0.0000
      7 C          16.1386   13.8719    3.0695 C.ar    1  UNL1        0.0000
      8 H          16.0170   14.5744    2.2576 H       1  UNL1        0.0000
      9 C          17.3977   13.6334    3.5935 C.ar    1  UNL1        0.0000
     10 H          18.2581   14.1415    3.1837 H       1  UNL1        0.0000
     11 C          17.5661   12.7403    4.6383 C.ar    1  UNL1        0.0000
     12 H          18.5567   12.5529    5.0197 H       1  UNL1        0.0000
     13 C          16.4627   12.0883    5.1667 C.ar    1  UNL1        0.0000
     14 C          12.8288   11.6199    4.8641 C.3     1  UNL1        0.0000
     15 H          12.3942   10.6302    5.0196 H       1  UNL1        0.0000
     16 H          12.7254   11.8695    3.8052 H       1  UNL1        0.0000
     17 C          12.0189   12.6279    5.7140 C.3     1  UNL1        0.0000
     18 C          12.4081   14.0716    5.3943 C.3     1  UNL1        0.0000
     19 H          11.8549   14.7569    6.0335 H       1  UNL1        0.0000
     20 H          12.1788   14.3163    4.3596 H       1  UNL1        0.0000
     21 H          13.4703   14.2288    5.5611 H       1  UNL1        0.0000
     22 C          12.2433   12.3642    7.2018 C.3     1  UNL1        0.0000
     23 H          13.2551   12.6317    7.4941 H       1  UNL1        0.0000
     24 H          12.0927   11.3139    7.4312 H       1  UNL1        0.0000
     25 H          11.5510   12.9550    7.7972 H       1  UNL1        0.0000
     26 C          10.5387   12.4164    5.3830 C.3     1  UNL1        0.0000
     27 H           9.9232   13.1335    5.9211 H       1  UNL1        0.0000
     28 H          10.2270   11.4139    5.6657 H       1  UNL1        0.0000
     29 H          10.3594   12.5446    4.3177 H       1  UNL1        0.0000
     30 C          17.5909   10.8717    6.9985 C.3     1  UNL1        0.0000
     31 H          18.4982   10.8925    6.3893 H       1  UNL1        0.0000
     32 H          17.4741    9.8564    7.3817 H       1  UNL1        0.0000
     33 C          17.7697   11.8206    8.2101 C.3     1  UNL1        0.0000
     34 C          18.3640   13.1675    7.7927 C.3     1  UNL1        0.0000
     35 H          17.7121   13.6770    7.0880 H       1  UNL1        0.0000
     36 H          19.3415   13.0354    7.3333 H       1  UNL1        0.0000
     37 H          18.4872   13.8050    8.6663 H       1  UNL1        0.0000
     38 C          16.4289   12.0666    8.9001 C.3     1  UNL1        0.0000
     39 H          15.7796   12.6725    8.2726 H       1  UNL1        0.0000
     40 H          16.5821   12.5947    9.8388 H       1  UNL1        0.0000
     41 H          15.9234   11.1289    9.1082 H       1  UNL1        0.0000
     42 C          18.7291   11.1326    9.1856 C.3     1  UNL1        0.0000
     43 H          18.9148   11.7670   10.0497 H       1  UNL1        0.0000
     44 H          19.6818   10.9253    8.7030 H       1  UNL1        0.0000
     45 H          18.3110   10.1904    9.5298 H       1  UNL1        0.0000
@<TRIPOS>BOND
     1     8     7    1
     2     7     5   ar
     3     7     9   ar
     4     6     5    1
     5    10     9    1
     6     5     4   ar
     7     9    11   ar
     8    16    14    1
     9    29    26    1
    10    20    18    1
    11     4    13   ar
    12     4     2    1
    13    11    12    1
    14    11    13   ar
    15    14    15    1
    16    14     2    1
    17    14    17    1
    18    13     3    1
    19     2     1    1
    20    26    28    1
    21    26    17    1
    22    26    27    1
    23    18    21    1
    24    18    17    1
    25    18    19    1
    26    17    22    1
    27     3     1    1
    28     3    30    1
    29    31    30    1
    30    30    32    1
    31    30    33    1
    32    35    34    1
    33    22    24    1
    34    22    23    1
    35    22    25    1
    36    36    34    1
    37    34    33    1
    38    34    37    1
    39    33    38    1
    40    33    42    1
    41    39    38    1
    42    44    42    1
    43    38    41    1
    44    38    40    1
    45    42    45    1
    46    42    43    1
    47     1    13    0
