@<TRIPOS>MOLECULE
1
 45 47 0 0 0
SMALL
GASTEIGER

@<TRIPOS>ATOM
      1 SI          2.1706   10.8888   15.0284 Si      1  UNL1        0.0000
      2 N           1.4465    9.2973   14.9810 N.pl3   1  UNL1        0.0000
      3 N           3.1395   10.3798   16.3894 N.pl3   1  UNL1        0.0000
      4 C           1.8946    8.4665   15.9891 C.ar    1  UNL1        0.0000
      5 C           1.4584    7.1876   16.2979 C.ar    1  UNL1        0.0000
      6 H           0.6950    6.7041   15.7105 H       1  UNL1        0.0000
      7 C           2.0011    6.5225   17.3847 C.ar    1  UNL1        0.0000
      8 H           1.6612    5.5250   17.6202 H       1  UNL1        0.0000
      9 C           2.9657    7.1287   18.1704 C.ar    1  UNL1        0.0000
     10 H           3.3800    6.6035   19.0179 H       1  UNL1        0.0000
     11 C           3.4005    8.4121   17.8856 C.ar    1  UNL1        0.0000
     12 H           4.1386    8.8746   18.5203 H       1  UNL1        0.0000
     13 C           2.8736    9.0887   16.7959 C.ar    1  UNL1        0.0000
     14 C           0.3635    8.9299   14.1034 C.3     1  UNL1        0.0000
     15 H          -0.1795    9.8491   13.8594 H       1  UNL1        0.0000
     16 H          -0.3284    8.2713   14.6366 H       1  UNL1        0.0000
     17 C           0.7594    8.2666   12.7639 C.3     1  UNL1        0.0000
     18 C           1.7895    9.1252   12.0337 C.3     1  UNL1        0.0000
     19 H           2.7376    9.1098   12.5645 H       1  UNL1        0.0000
     20 H           1.4462   10.1547   11.9555 H       1  UNL1        0.0000
     21 H           1.9548    8.7401   11.0297 H       1  UNL1        0.0000
     22 C           1.3391    6.8681   12.9789 C.3     1  UNL1        0.0000
     23 H           0.5944    6.2001   13.4060 H       1  UNL1        0.0000
     24 H           2.1977    6.9054   13.6445 H       1  UNL1        0.0000
     25 H           1.6603    6.4482   12.0277 H       1  UNL1        0.0000
     26 C          -0.5101    8.1683   11.9128 C.3     1  UNL1        0.0000
     27 H          -1.2817    7.6040   12.4327 H       1  UNL1        0.0000
     28 H          -0.2966    7.6664   10.9719 H       1  UNL1        0.0000
     29 H          -0.9009    9.1596   11.6919 H       1  UNL1        0.0000
     30 C           4.0173   11.2610   17.1208 C.3     1  UNL1        0.0000
     31 H           4.0069   10.9845   18.1785 H       1  UNL1        0.0000
     32 H           3.6029   12.2704   17.0408 H       1  UNL1        0.0000
     33 C           5.4810   11.3175   16.6278 C.3     1  UNL1        0.0000
     34 C           6.1811   12.4291   17.4134 C.3     1  UNL1        0.0000
     35 H           7.2310   12.4842   17.1357 H       1  UNL1        0.0000
     36 H           6.1197   12.2457   18.4841 H       1  UNL1        0.0000
     37 H           5.7169   13.3888   17.2001 H       1  UNL1        0.0000
     38 C           5.5306   11.6511   15.1381 C.3     1  UNL1        0.0000
     39 H           6.5576   11.8339   14.8304 H       1  UNL1        0.0000
     40 H           4.9455   12.5416   14.9172 H       1  UNL1        0.0000
     41 H           5.1418   10.8235   14.5517 H       1  UNL1        0.0000
     42 C           6.1974    9.9874   16.8675 C.3     1  UNL1        0.0000
     43 H           7.2057   10.0282   16.4606 H       1  UNL1        0.0000
     44 H           5.6659    9.1708   16.3848 H       1  UNL1        0.0000
     45 H           6.2731    9.7730   17.9312 H       1  UNL1        0.0000
@<TRIPOS>BOND
     1    28    26    1
     2    21    18    1
     3    29    26    1
     4    26    27    1
     5    26    17    1
     6    20    18    1
     7    25    22    1
     8    18    19    1
     9    18    17    1
    10    17    22    1
    11    17    14    1
    12    22    23    1
    13    22    24    1
    14    15    14    1
    15    14    16    1
    16    14     2    1
    17    41    38    1
    18    39    38    1
    19    40    38    1
    20     2     1    1
    21     2     4    1
    22     1     3    1
    23    38    33    1
    24     6     5    1
    25     4     5   ar
    26     4    13   ar
    27     5     7   ar
    28    44    42    1
    29     3    13    1
    30     3    30    1
    31    43    42    1
    32    33    42    1
    33    33    30    1
    34    33    34    1
    35    13    11   ar
    36    42    45    1
    37    32    30    1
    38    30    31    1
    39    35    34    1
    40    37    34    1
    41     7     8    1
    42     7     9   ar
    43    34    36    1
    44    11     9   ar
    45    11    12    1
    46     9    10    1
    47     1    13    0
