@<TRIPOS>MOLECULE
2
 28 28 0 0 0
SMALL
GASTEIGER

@<TRIPOS>ATOM
      1 SI          6.2833   -2.0551   -0.0471 Si      1  UNL1        0.0000
      2 SI          3.9160   -1.4910    1.8607 Si      1  UNL1        0.0000
      3 C           5.2211   -3.5624    0.4476 C.ar    1  UNL1        0.0000
      4 C           5.4647   -4.8616    0.0253 C.ar    1  UNL1        0.0000
      5 C           4.6445   -5.9039    0.4253 C.ar    1  UNL1        0.0000
      6 C           3.5836   -5.6531    1.2782 C.ar    1  UNL1        0.0000
      7 C           3.3549   -4.3637    1.7302 C.ar    1  UNL1        0.0000
      8 C           4.1578   -3.3107    1.3174 C.ar    1  UNL1        0.0000
      9 C           7.8119   -2.1550    1.1209 C.3     1  UNL1        0.0000
     10 C           7.0252   -2.3954   -1.7930 C.3     1  UNL1        0.0000
     11 C           4.8205   -1.3052    3.5560 C.3     1  UNL1        0.0000
     12 C           2.0625   -1.3949    2.4014 C.3     1  UNL1        0.0000
     13 H           6.3011   -5.0682   -0.6284 H       1  UNL1        0.0000
     14 H           4.8332   -6.9091    0.0733 H       1  UNL1        0.0000
     15 H           2.9374   -6.4616    1.5915 H       1  UNL1        0.0000
     16 H           2.5319   -4.1767    2.4042 H       1  UNL1        0.0000
     17 H           8.3550   -3.0782    0.9442 H       1  UNL1        0.0000
     18 H           7.5220   -2.1431    2.1657 H       1  UNL1        0.0000
     19 H           8.4976   -1.3297    0.9551 H       1  UNL1        0.0000
     20 H           7.2381   -3.4485   -1.9418 H       1  UNL1        0.0000
     21 H           7.9611   -1.8590   -1.9127 H       1  UNL1        0.0000
     22 H           6.3575   -2.0761   -2.5868 H       1  UNL1        0.0000
     23 H           4.4867   -0.4074    4.0673 H       1  UNL1        0.0000
     24 H           5.8975   -1.2376    3.4462 H       1  UNL1        0.0000
     25 H           4.6021   -2.1536    4.1979 H       1  UNL1        0.0000
     26 H           1.8734   -2.0394    3.2543 H       1  UNL1        0.0000
     27 H           1.3890   -1.6923    1.6026 H       1  UNL1        0.0000
     28 H           1.7972   -0.3853    2.6968 H       1  UNL1        0.0000
@<TRIPOS>BOND
     1    22    10    1
     2    20    10    1
     3    21    10    1
     4    10     1    1
     5    13     4    1
     6     1     3    1
     7     1     9    1
     8     4     5   ar
     9     4     3   ar
    10    14     5    1
    11     5     6   ar
    12     3     8   ar
    13    17     9    1
    14    19     9    1
    15     9    18    1
    16     6    15    1
    17     6     7   ar
    18     8     7   ar
    19     8     2    1
    20    27    12    1
    21     7    16    1
    22     2    12    1
    23     2    11    1
    24    12    28    1
    25    12    26    1
    26    24    11    1
    27    11    23    1
    28    11    25    1
