@<TRIPOS>MOLECULE
2
 28 28 0 0 0
SMALL
GASTEIGER

@<TRIPOS>ATOM
      1 SI          3.2334    2.0596    0.0543 Si      1  UNL1        0.0000
      2 SI          5.5902    1.4937   -1.8676 Si      1  UNL1        0.0000
      3 C           4.2968    3.5650   -0.4432 C.ar    1  UNL1        0.0000
      4 C           4.0569    4.8641   -0.0185 C.ar    1  UNL1        0.0000
      5 C           4.8759    5.9058   -0.4223 C.ar    1  UNL1        0.0000
      6 C           5.9320    5.6544   -1.2811 C.ar    1  UNL1        0.0000
      7 C           6.1565    4.3652   -1.7356 C.ar    1  UNL1        0.0000
      8 C           5.3546    3.3127   -1.3195 C.ar    1  UNL1        0.0000
      9 C           1.7006    2.1654   -1.1074 C.3     1  UNL1        0.0000
     10 C           2.4996    2.3961    1.8041 C.3     1  UNL1        0.0000
     11 C           4.6746    1.3098   -3.5570 C.3     1  UNL1        0.0000
     12 C           7.4401    1.3963   -2.4202 C.3     1  UNL1        0.0000
     13 H           3.2241    5.0713    0.6396 H       1  UNL1        0.0000
     14 H           4.6904    6.9109   -0.0683 H       1  UNL1        0.0000
     15 H           6.5776    6.4625   -1.5968 H       1  UNL1        0.0000
     16 H           6.9755    4.1779   -2.4144 H       1  UNL1        0.0000
     17 H           1.1607    3.0897   -0.9267 H       1  UNL1        0.0000
     18 H           1.9865    2.1549   -2.1533 H       1  UNL1        0.0000
     19 H           1.0133    1.3415   -0.9405 H       1  UNL1        0.0000
     20 H           2.2961    3.4502    1.9591 H       1  UNL1        0.0000
     21 H           1.5593    1.8674    1.9232 H       1  UNL1        0.0000
     22 H           3.1661    2.0670    2.5947 H       1  UNL1        0.0000
     23 H           5.0076    0.4137   -4.0720 H       1  UNL1        0.0000
     24 H           3.5985    1.2392   -3.4407 H       1  UNL1        0.0000
     25 H           4.8872    2.1600   -4.1985 H       1  UNL1        0.0000
     26 H           7.6244    2.0402   -3.2746 H       1  UNL1        0.0000
     27 H           8.1190    1.6931   -1.6259 H       1  UNL1        0.0000
     28 H           7.7022    0.3863   -2.7169 H       1  UNL1        0.0000
@<TRIPOS>BOND
     1    25    11    1
     2    23    11    1
     3    11    24    1
     4    11     2    1
     5    26    12    1
     6    28    12    1
     7    12     2    1
     8    12    27    1
     9    16     7    1
    10    18     9    1
    11     2     8    1
    12     7     8   ar
    13     7     6   ar
    14    15     6    1
    15     8     3   ar
    16     6     5   ar
    17     9    19    1
    18     9    17    1
    19     9     1    1
    20     3     4   ar
    21     3     1    1
    22     5    14    1
    23     5     4   ar
    24     4    13    1
    25     1    10    1
    26    10    21    1
    27    10    20    1
    28    10    22    1
