@<TRIPOS>MOLECULE
1
 24 25 0 0 0
SMALL
GASTEIGER

@<TRIPOS>ATOM
      1 SI          1.6155    2.3748    2.7062 Si      1  UNL1        0.0000
      2 C           0.7698    0.0244    4.1601 C.ar    1  UNL1        0.0000
      3 H           1.4160    0.3839    4.9457 H       1  UNL1        0.0000
      4 C           0.2764    3.4652    3.5156 C.ar    1  UNL1        0.0000
      5 C           0.6957    0.7245    2.9622 C.ar    1  UNL1        0.0000
      6 C           0.0172    3.3763    4.8792 C.ar    1  UNL1        0.0000
      7 H           0.6371    2.7401    5.4927 H       1  UNL1        0.0000
      8 C          -0.5445    4.2850    2.7520 C.ar    1  UNL1        0.0000
      9 H          -0.3784    4.3503    1.6862 H       1  UNL1        0.0000
     10 C           0.0344   -1.1302    4.3646 C.ar    1  UNL1        0.0000
     11 H           0.1106   -1.6596    5.3042 H       1  UNL1        0.0000
     12 C          -1.0107    4.0929    5.4634 C.ar    1  UNL1        0.0000
     13 H          -1.1937    4.0084    6.5254 H       1  UNL1        0.0000
     14 C          -0.1547    0.2353    1.9775 C.ar    1  UNL1        0.0000
     15 H          -0.2385    0.7712    1.0430 H       1  UNL1        0.0000
     16 C          -0.7975   -1.6084    3.3668 C.ar    1  UNL1        0.0000
     17 H          -1.3722   -2.5105    3.5220 H       1  UNL1        0.0000
     18 C          -1.5746    5.0092    3.3265 C.ar    1  UNL1        0.0000
     19 H          -2.1996    5.6421    2.7116 H       1  UNL1        0.0000
     20 C          -1.8095    4.9169    4.6874 C.ar    1  UNL1        0.0000
     21 H          -2.6147    5.4780    5.1398 H       1  UNL1        0.0000
     22 C          -0.8921   -0.9188    2.1696 C.ar    1  UNL1        0.0000
     23 H          -1.5443   -1.2816    1.3870 H       1  UNL1        0.0000
     24 H           1.4174    2.6765    1.2490 H       1  UNL1        0.0000
@<TRIPOS>BOND
     1    15    14    1
     2    24     1    1
     3    23    22    1
     4     9     8    1
     5    14    22   ar
     6    14     5   ar
     7    22    16   ar
     8     1     5    1
     9     1     4    1
    10    19    18    1
    11     8    18   ar
    12     8     4   ar
    13     5     2   ar
    14    18    20   ar
    15    16    17    1
    16    16    10   ar
    17     4     6   ar
    18     2    10   ar
    19     2     3    1
    20    10    11    1
    21    20    21    1
    22    20    12   ar
    23     6    12   ar
    24     6     7    1
    25    12    13    1
