@<TRIPOS>MOLECULE
1
 41 41 0 0 0
SMALL
GASTEIGER

@<TRIPOS>ATOM
      1 SI          5.9223   17.3394    8.3733 Si      1  UNL1        0.0000
      2 H           6.6020   18.5722    8.8827 H       1  UNL1        0.0000
      3 H           4.5630   17.7117    8.8703 H       1  UNL1        0.0000
      4 C           6.4471   16.0549    9.6680 C.ar    1  UNL1        0.0000
      5 C           5.5334   15.0822   10.0800 C.ar    1  UNL1        0.0000
      6 C           5.8118   14.2809   11.1771 C.ar    1  UNL1        0.0000
      7 H           5.0839   13.5512   11.4964 H       1  UNL1        0.0000
      8 C           6.9995   14.4014   11.8796 C.ar    1  UNL1        0.0000
      9 C           7.9232   15.3299   11.4326 C.ar    1  UNL1        0.0000
     10 H           8.8609   15.4215   11.9618 H       1  UNL1        0.0000
     11 C           7.6694   16.1440   10.3371 C.ar    1  UNL1        0.0000
     12 C           4.2235   14.8782    9.3568 C.3     1  UNL1        0.0000
     13 H           4.3021   15.3552    8.3747 H       1  UNL1        0.0000
     14 C           3.0830   15.5403   10.1319 C.3     1  UNL1        0.0000
     15 H           2.9856   15.0915   11.1186 H       1  UNL1        0.0000
     16 H           2.1438   15.4172    9.5971 H       1  UNL1        0.0000
     17 H           3.2753   16.6017   10.2575 H       1  UNL1        0.0000
     18 C           3.8969   13.3958    9.1450 C.3     1  UNL1        0.0000
     19 H           4.7777   12.8390    8.8301 H       1  UNL1        0.0000
     20 H           3.1264   13.2907    8.3844 H       1  UNL1        0.0000
     21 H           3.5231   12.9413   10.0597 H       1  UNL1        0.0000
     22 C           7.2893   13.5451   13.0880 C.3     1  UNL1        0.0000
     23 H           8.2803   13.8175   13.4700 H       1  UNL1        0.0000
     24 C           6.2648   13.8058   14.1941 C.3     1  UNL1        0.0000
     25 H           6.2493   14.8625   14.4533 H       1  UNL1        0.0000
     26 H           6.5140   13.2325   15.0850 H       1  UNL1        0.0000
     27 H           5.2674   13.5193   13.8695 H       1  UNL1        0.0000
     28 C           7.3162   12.0616   12.7139 C.3     1  UNL1        0.0000
     29 H           6.3422   11.7367   12.3563 H       1  UNL1        0.0000
     30 H           7.5828   11.4577   13.5791 H       1  UNL1        0.0000
     31 H           8.0464   11.8831   11.9274 H       1  UNL1        0.0000
     32 C           8.7409   17.1238    9.9149 C.3     1  UNL1        0.0000
     33 H           8.5050   17.4635    8.9028 H       1  UNL1        0.0000
     34 C           8.7346   18.3361   10.8478 C.3     1  UNL1        0.0000
     35 H           7.7599   18.8165   10.8324 H       1  UNL1        0.0000
     36 H           9.4883   19.0592   10.5406 H       1  UNL1        0.0000
     37 H           8.9460   18.0269   11.8690 H       1  UNL1        0.0000
     38 C          10.1413   16.5025    9.8855 C.3     1  UNL1        0.0000
     39 H          10.8337   17.1711    9.3759 H       1  UNL1        0.0000
     40 H          10.1384   15.5460    9.3658 H       1  UNL1        0.0000
     41 H          10.5216   16.3376   10.8903 H       1  UNL1        0.0000
@<TRIPOS>BOND
     1     1     3    1
     2     1     2    1
     3     1     4    1
     4    13    12    1
     5    20    18    1
     6    19    18    1
     7    33    32    1
     8    18    12    1
     9    18    21    1
    10    12     5    1
    11    12    14    1
    12    40    38    1
    13    39    38    1
    14    16    14    1
    15     4     5   ar
    16     4    11   ar
    17    38    32    1
    18    38    41    1
    19    32    11    1
    20    32    34    1
    21     5     6   ar
    22    14    17    1
    23    14    15    1
    24    11     9   ar
    25    36    34    1
    26    35    34    1
    27    34    37    1
    28     6     7    1
    29     6     8   ar
    30     9     8   ar
    31     9    10    1
    32     8    22    1
    33    31    28    1
    34    29    28    1
    35    28    22    1
    36    28    30    1
    37    22    23    1
    38    22    24    1
    39    27    24    1
    40    24    25    1
    41    24    26    1
