@<TRIPOS>MOLECULE
1
 40 40 0 0 0
SMALL
GASTEIGER

@<TRIPOS>ATOM
      1 SI          3.5573    5.6475   16.2647 Si      1  UNL1        0.0000
      2 H           4.0530    6.5311   15.1255 H       1  UNL1        0.0000
      3 C           4.9202    4.3306   16.0707 C.ar    1  UNL1        0.0000
      4 C           6.0348    4.4431   16.9049 C.ar    1  UNL1        0.0000
      5 C           7.0550    3.5073   16.8295 C.ar    1  UNL1        0.0000
      6 H           7.9217    3.5996   17.4675 H       1  UNL1        0.0000
      7 C           6.9900    2.4445   15.9420 C.ar    1  UNL1        0.0000
      8 C           5.8786    2.3365   15.1185 C.ar    1  UNL1        0.0000
      9 H           5.8231    1.5162   14.4207 H       1  UNL1        0.0000
     10 C           4.8446    3.2574   15.1728 C.ar    1  UNL1        0.0000
     11 C           6.1401    5.6190   17.8450 C.3     1  UNL1        0.0000
     12 H           5.1233    5.9801   18.0346 H       1  UNL1        0.0000
     13 C           6.9091    6.7489   17.1597 C.3     1  UNL1        0.0000
     14 H           6.4234    7.0175   16.2261 H       1  UNL1        0.0000
     15 H           7.9267    6.4327   16.9418 H       1  UNL1        0.0000
     16 H           6.9484    7.6278   17.7998 H       1  UNL1        0.0000
     17 C           6.7795    5.2721   19.1898 C.3     1  UNL1        0.0000
     18 H           6.3257    4.3780   19.6119 H       1  UNL1        0.0000
     19 H           6.6402    6.0937   19.8893 H       1  UNL1        0.0000
     20 H           7.8476    5.1002   19.0858 H       1  UNL1        0.0000
     21 C           8.1081    1.4327   15.8780 C.3     1  UNL1        0.0000
     22 H           8.8708    1.7197   16.6112 H       1  UNL1        0.0000
     23 C           8.7595    1.4258   14.4937 C.3     1  UNL1        0.0000
     24 H           8.0481    1.1128   13.7337 H       1  UNL1        0.0000
     25 H           9.6037    0.7393   14.4765 H       1  UNL1        0.0000
     26 H           9.1164    2.4215   14.2392 H       1  UNL1        0.0000
     27 C           7.5985    0.0372   16.2448 C.3     1  UNL1        0.0000
     28 H           7.1353    0.0508   17.2292 H       1  UNL1        0.0000
     29 H           8.4214   -0.6747   16.2582 H       1  UNL1        0.0000
     30 H           6.8603   -0.3059   15.5243 H       1  UNL1        0.0000
     31 C           3.6596    3.1489   14.2441 C.3     1  UNL1        0.0000
     32 H           2.7915    3.5766   14.7484 H       1  UNL1        0.0000
     33 C           3.9279    3.9836   12.9887 C.3     1  UNL1        0.0000
     34 H           4.1371    5.0151   13.2582 H       1  UNL1        0.0000
     35 H           3.0562    3.9697   12.3384 H       1  UNL1        0.0000
     36 H           4.7821    3.5855   12.4424 H       1  UNL1        0.0000
     37 C           3.3168    1.7137   13.8429 C.3     1  UNL1        0.0000
     38 H           4.0376    1.3172   13.1298 H       1  UNL1        0.0000
     39 H           2.3368    1.6926   13.3705 H       1  UNL1        0.0000
     40 H           3.2937    1.0561   14.7106 H       1  UNL1        0.0000
@<TRIPOS>BOND
     1    35    33    1
     2    36    33    1
     3    33    34    1
     4    33    31    1
     5    38    37    1
     6    39    37    1
     7    24    23    1
     8    37    31    1
     9    37    40    1
    10    26    23    1
    11    31    32    1
    12    31    10    1
    13     9     8    1
    14    25    23    1
    15    23    21    1
    16     8    10   ar
    17     8     7   ar
    18     2     1    1
    19    10     3   ar
    20    30    27    1
    21    21     7    1
    22    21    27    1
    23    21    22    1
    24     7     5   ar
    25     3     1    1
    26     3     4   ar
    27    14    13    1
    28    27    29    1
    29    27    28    1
    30     5     4   ar
    31     5     6    1
    32     4    11    1
    33    15    13    1
    34    13    16    1
    35    13    11    1
    36    11    12    1
    37    11    17    1
    38    20    17    1
    39    17    18    1
    40    17    19    1
