@<TRIPOS>MOLECULE
3
 4 3 0 0 0
SMALL
GASTEIGER

@<TRIPOS>ATOM
      1 CL          6.5898    5.8178    3.0497 Cl      1  UNL1        0.0000
      2 CL          7.2003    3.4889    5.2735 Cl      1  UNL1        0.0000
      3 SI          6.9690    3.8512    3.3047 Si      1  UNL1        0.0000
      4 H           8.2957    3.6393    2.7211 H       1  UNL1        0.0000
@<TRIPOS>BOND
     1     4     3    1
     2     1     3    1
     3     3     2    1
