@<TRIPOS>MOLECULE
3
 4 3 0 0 0
SMALL
GASTEIGER

@<TRIPOS>ATOM
      1 CL          4.9249    1.9396   -0.6624 Cl      1  UNL1        0.0000
      2 CL          5.7135   -0.4324    1.4227 Cl      1  UNL1        0.0000
      3 SI          5.9905    1.5178    0.9989 Si      1  UNL1        0.0000
      4 H           7.3955    1.5984    0.5890 H       1  UNL1        0.0000
@<TRIPOS>BOND
     1     1     3    1
     2     4     3    1
     3     3     2    1
