@<TRIPOS>MOLECULE
1
 30 31 0 0 0
SMALL
GASTEIGER

@<TRIPOS>ATOM
      1 SI          4.7305    6.5506   10.3057 Si      1  UNL1        0.0000
      2 F          11.1405    8.7322   11.4826 F       1  UNL1        0.0000
      3 F          10.2212   10.5931   10.9166 F       1  UNL1        0.0000
      4 F          10.9177    9.2346    9.4034 F       1  UNL1        0.0000
      5 F          -0.6897   10.6245   11.3461 F       1  UNL1        0.0000
      6 F           0.8561   12.1076   11.5366 F       1  UNL1        0.0000
      7 F           0.1595   11.5238    9.5881 F       1  UNL1        0.0000
      8 C           6.4323    7.4261   10.4129 C.ar    1  UNL1        0.0000
      9 C           7.3964    6.9709   11.3047 C.ar    1  UNL1        0.0000
     10 C           8.6476    7.5545   11.3876 C.ar    1  UNL1        0.0000
     11 C           8.9510    8.6273   10.5616 C.ar    1  UNL1        0.0000
     12 C           8.0028    9.1123    9.6688 C.ar    1  UNL1        0.0000
     13 C           6.7625    8.5059    9.5998 C.ar    1  UNL1        0.0000
     14 C          10.2961    9.2861   10.6016 C.3     1  UNL1        0.0000
     15 C           3.4428    7.9658   10.4877 C.ar    1  UNL1        0.0000
     16 C           3.8022    9.2816   10.7543 C.ar    1  UNL1        0.0000
     17 C           2.8537   10.2812   10.8747 C.ar    1  UNL1        0.0000
     18 C           1.5085    9.9660   10.7443 C.ar    1  UNL1        0.0000
     19 C           1.1198    8.6526   10.5114 C.ar    1  UNL1        0.0000
     20 C           2.0863    7.6735   10.3907 C.ar    1  UNL1        0.0000
     21 C           0.4705   11.0443   10.8149 C.3     1  UNL1        0.0000
     22 H           4.6442    6.0300   11.7164 H       1  UNL1        0.0000
     23 H           7.1582    6.1434   11.9560 H       1  UNL1        0.0000
     24 H           9.3841    7.1859   12.0859 H       1  UNL1        0.0000
     25 H           8.2453    9.9540    9.0363 H       1  UNL1        0.0000
     26 H           6.0302    8.8860    8.9032 H       1  UNL1        0.0000
     27 H           4.8436    9.5354   10.8761 H       1  UNL1        0.0000
     28 H           3.1511   11.2998   11.0745 H       1  UNL1        0.0000
     29 H           0.0706    8.4092   10.4304 H       1  UNL1        0.0000
     30 H           1.7849    6.6514   10.2174 H       1  UNL1        0.0000
@<TRIPOS>BOND
     1    26    13    1
     2    25    12    1
     3     4    14    1
     4     7    21    1
     5    13    12   ar
     6    13     8   ar
     7    12    11   ar
     8    30    20    1
     9     1     8    1
    10     1    15    1
    11     1    22    1
    12    20    15   ar
    13    20    19   ar
    14     8     9   ar
    15    29    19    1
    16    15    16   ar
    17    19    18   ar
    18    11    14    1
    19    11    10   ar
    20    14     3    1
    21    14     2    1
    22    18    21    1
    23    18    17   ar
    24    16    17   ar
    25    16    27    1
    26    21     5    1
    27    21     6    1
    28    17    28    1
    29     9    10   ar
    30     9    23    1
    31    10    24    1
