@<TRIPOS>MOLECULE
1
 32 33 0 0 0
SMALL
GASTEIGER

@<TRIPOS>ATOM
      1 SI         10.5391    2.1308   23.4526 Si      1  UNL1        0.0000
      2 O          12.8489    3.2717   28.9708 O.3     1  UNL1        0.0000
      3 O           9.6212   -3.8731   23.8090 O.3     1  UNL1        0.0000
      4 C          11.2601    2.5305   25.1794 C.ar    1  UNL1        0.0000
      5 C          11.5517    3.8299   25.5680 C.ar    1  UNL1        0.0000
      6 C          12.0820    4.1287   26.8117 C.ar    1  UNL1        0.0000
      7 C          12.3341    3.1047   27.7161 C.ar    1  UNL1        0.0000
      8 C          12.0447    1.7919   27.3444 C.ar    1  UNL1        0.0000
      9 C          11.5200    1.5189   26.0998 C.ar    1  UNL1        0.0000
     10 C          13.1691    4.5727   29.3941 C.3     1  UNL1        0.0000
     11 C          10.1900    0.2540   23.5379 C.ar    1  UNL1        0.0000
     12 C          11.2322   -0.6593   23.4133 C.ar    1  UNL1        0.0000
     13 C          11.0152   -2.0170   23.5062 C.ar    1  UNL1        0.0000
     14 C           9.7309   -2.5136   23.7336 C.ar    1  UNL1        0.0000
     15 C           8.6765   -1.6178   23.8585 C.ar    1  UNL1        0.0000
     16 C           8.9226   -0.2580   23.7569 C.ar    1  UNL1        0.0000
     17 C           8.3548   -4.4305   24.0516 C.3     1  UNL1        0.0000
     18 H          11.7941    2.1303   22.6060 H       1  UNL1        0.0000
     19 H          11.3490    4.6416   24.8849 H       1  UNL1        0.0000
     20 H          12.2904    5.1581   27.0622 H       1  UNL1        0.0000
     21 H          12.2429    1.0033   28.0541 H       1  UNL1        0.0000
     22 H          11.3039    0.4948   25.8340 H       1  UNL1        0.0000
     23 H          13.5631    4.4668   30.4039 H       1  UNL1        0.0000
     24 H          13.9327    5.0286   28.7548 H       1  UNL1        0.0000
     25 H          12.2847    5.2187   29.4183 H       1  UNL1        0.0000
     26 H          12.2338   -0.2939   23.2426 H       1  UNL1        0.0000
     27 H          11.8250   -2.7237   23.4090 H       1  UNL1        0.0000
     28 H           7.6681   -1.9641   24.0328 H       1  UNL1        0.0000
     29 H           8.0916    0.4312   23.8402 H       1  UNL1        0.0000
     30 H           7.9433   -4.0961   25.0101 H       1  UNL1        0.0000
     31 H           7.6474   -4.1905   23.2502 H       1  UNL1        0.0000
     32 H           8.5068   -5.5084   24.0836 H       1  UNL1        0.0000
@<TRIPOS>BOND
     1    18     1    1
     2    26    12    1
     3    31    17    1
     4    27    13    1
     5    12    13   ar
     6    12    11   ar
     7     1    11    1
     8     1     4    1
     9    13    14   ar
    10    11    16   ar
    11    14     3    1
    12    14    15   ar
    13    16    29    1
    14    16    15   ar
    15     3    17    1
    16    15    28    1
    17    17    32    1
    18    17    30    1
    19    19     5    1
    20     4     5   ar
    21     4     9   ar
    22     5     6   ar
    23    22     9    1
    24     9     8   ar
    25     6    20    1
    26     6     7   ar
    27     8     7   ar
    28     8    21    1
    29     7     2    1
    30    24    10    1
    31     2    10    1
    32    10    25    1
    33    10    23    1
