@<TRIPOS>MOLECULE
1
 13 12 0 0 0
SMALL
GASTEIGER

@<TRIPOS>ATOM
      1 SI         -1.5441    1.6426   13.2752 Si      1  UNL1        0.0000
      2 C          -1.2506    0.2884   14.5968 C.3     1  UNL1        0.0000
      3 C          -3.3516    2.2488   13.4974 C.3     1  UNL1        0.0000
      4 C          -1.3321    1.0121   11.4894 C.3     1  UNL1        0.0000
      5 H          -1.9062   -0.5543   14.4070 H       1  UNL1        0.0000
      6 H          -0.2347   -0.0875   14.5964 H       1  UNL1        0.0000
      7 H          -1.4730    0.6564   15.5941 H       1  UNL1        0.0000
      8 H          -3.5323    2.6199   14.5034 H       1  UNL1        0.0000
      9 H          -3.5993    3.0416   12.8000 H       1  UNL1        0.0000
     10 H          -4.0466    1.4354   13.3183 H       1  UNL1        0.0000
     11 H          -2.1377    0.3290   11.2419 H       1  UNL1        0.0000
     12 H          -1.3665    1.8288   10.7765 H       1  UNL1        0.0000
     13 H          -0.3990    0.4820   11.3411 H       1  UNL1        0.0000
@<TRIPOS>BOND
     1    12     4    1
     2    11     4    1
     3    13     4    1
     4     4     1    1
     5     9     3    1
     6     1     3    1
     7     1     2    1
     8    10     3    1
     9     3     8    1
    10     5     2    1
    11     6     2    1
    12     2     7    1
