@<TRIPOS>MOLECULE
1
 4 3 0 0 0
SMALL
GASTEIGER

@<TRIPOS>ATOM
      1 SI          3.8839   -0.4905    4.7420 Si      1  UNL1        0.0000
      2 CL          5.6309   -1.2290    3.9565 Cl      1  UNL1        0.0000
      3 CL          3.4123    1.0853    3.4991 Cl      1  UNL1        0.0000
      4 CL          2.5605   -1.9975    4.2380 Cl      1  UNL1        0.0000
@<TRIPOS>BOND
     1     3     1    1
     2     2     1    1
     3     4     1    1
