@<TRIPOS>MOLECULE
1
 4 3 0 0 0
SMALL
GASTEIGER

@<TRIPOS>ATOM
      1 SI          5.4297    1.1507    6.9103 Si      1  UNL1        0.0000
      2 CL          5.1738    3.0224    6.0911 Cl      1  UNL1        0.0000
      3 CL          5.8793    1.4527    8.9041 Cl      1  UNL1        0.0000
      4 CL          7.2476    0.5343    6.1874 Cl      1  UNL1        0.0000
@<TRIPOS>BOND
     1     2     1    1
     2     4     1    1
     3     1     3    1
