@<TRIPOS>MOLECULE
1
 4 3 0 0 0
SMALL
GASTEIGER

@<TRIPOS>ATOM
      1 SI          0.4362    0.3770    1.7082 Si      1  UNL1        0.0000
      2 F          -0.3524   -0.8801    1.0437 F       1  UNL1        0.0000
      3 F          -0.3442    0.3492    3.1314 F       1  UNL1        0.0000
      4 F          -0.4496    1.5679    1.0434 F       1  UNL1        0.0000
@<TRIPOS>BOND
     1     4     1    1
     2     2     1    1
     3     1     3    1
