@<TRIPOS>MOLECULE
1
 14 14 0 0 0
SMALL
GASTEIGER

@<TRIPOS>ATOM
      1 SI          7.4489   19.3566    2.5908 Si      1  UNL1        0.0000
      2 H           7.9817   19.4955    1.2009 H       1  UNL1        0.0000
      3 H           7.9770   17.9860    2.9429 H       1  UNL1        0.0000
      4 C           5.6055   18.9354    2.3228 C.ar    1  UNL1        0.0000
      5 C           5.2270   18.2688    1.1629 C.ar    1  UNL1        0.0000
      6 H           5.9719   18.0722    0.4053 H       1  UNL1        0.0000
      7 C           3.9270   17.8427    0.9655 C.ar    1  UNL1        0.0000
      8 H           3.6597   17.3194    0.0577 H       1  UNL1        0.0000
      9 C           2.9676   18.0782    1.9351 C.ar    1  UNL1        0.0000
     10 H           1.9523   17.7364    1.7902 H       1  UNL1        0.0000
     11 C           3.3208   18.7513    3.0912 C.ar    1  UNL1        0.0000
     12 H           2.5778   18.9423    3.8534 H       1  UNL1        0.0000
     13 C           4.6255   19.1716    3.2774 C.ar    1  UNL1        0.0000
     14 H           4.8902   19.6898    4.1886 H       1  UNL1        0.0000
@<TRIPOS>BOND
     1     8     7    1
     2     6     5    1
     3     7     5   ar
     4     7     9   ar
     5     5     4   ar
     6     2     1    1
     7    10     9    1
     8     9    11   ar
     9     4     1    1
    10     4    13   ar
    11     1     3    1
    12    11    13   ar
    13    11    12    1
    14    13    14    1
