@<TRIPOS>MOLECULE
1
 24 25 0 0 0
SMALL
GASTEIGER

@<TRIPOS>ATOM
      1 SI         11.2555   10.0176    2.1737 Si      1  UNL1        0.0000
      2 H          12.3530   10.4432    3.0962 H       1  UNL1        0.0000
      3 C          12.1159    9.8232    0.4797 C.ar    1  UNL1        0.0000
      4 C          13.4347   10.2193    0.2933 C.ar    1  UNL1        0.0000
      5 H          13.9665   10.6739    1.1164 H       1  UNL1        0.0000
      6 C          14.0725   10.0449   -0.9223 C.ar    1  UNL1        0.0000
      7 H          15.0992   10.3611   -1.0460 H       1  UNL1        0.0000
      8 C          13.3960    9.4655   -1.9823 C.ar    1  UNL1        0.0000
      9 H          13.8911    9.3277   -2.9334 H       1  UNL1        0.0000
     10 C          12.0811    9.0632   -1.8155 C.ar    1  UNL1        0.0000
     11 H          11.5468    8.6106   -2.6398 H       1  UNL1        0.0000
     12 C          11.4532    9.2383   -0.5955 C.ar    1  UNL1        0.0000
     13 H          10.4256    8.9172   -0.4705 H       1  UNL1        0.0000
     14 C          10.2159   11.6228    2.0718 C.ar    1  UNL1        0.0000
     15 C           9.6411   12.0663    0.8855 C.ar    1  UNL1        0.0000
     16 H           9.8248   11.5156   -0.0250 H       1  UNL1        0.0000
     17 C           8.8440   13.1984    0.8546 C.ar    1  UNL1        0.0000
     18 H           8.4115   13.5287   -0.0797 H       1  UNL1        0.0000
     19 C           8.5984   13.9069    2.0191 C.ar    1  UNL1        0.0000
     20 H           7.9797   14.7934    1.9980 H       1  UNL1        0.0000
     21 C           9.1585   13.4778    3.2116 C.ar    1  UNL1        0.0000
     22 H           8.9749   14.0308    4.1232 H       1  UNL1        0.0000
     23 C           9.9594   12.3496    3.2328 C.ar    1  UNL1        0.0000
     24 H          10.4049   12.0237    4.1631 H       1  UNL1        0.0000
@<TRIPOS>BOND
     1     9     8    1
     2    11    10    1
     3     8    10   ar
     4     8     6   ar
     5    10    12   ar
     6     7     6    1
     7     6     4   ar
     8    12    13    1
     9    12     3   ar
    10    18    17    1
    11    16    15    1
    12     4     3   ar
    13     4     5    1
    14     3     1    1
    15    17    15   ar
    16    17    19   ar
    17    15    14   ar
    18    20    19    1
    19    19    21   ar
    20    14     1    1
    21    14    23   ar
    22     1     2    1
    23    21    23   ar
    24    21    22    1
    25    23    24    1
