@<TRIPOS>MOLECULE
1
 25 24 0 0 0
SMALL
GASTEIGER

@<TRIPOS>ATOM
      1 SI          3.2884    4.5900    3.5326 Si      1  UNL1        0.0000
      2 O           3.3197    5.8036    2.4404 O.3     1  UNL1        0.0000
      3 O           4.8516    4.0745    3.6765 O.3     1  UNL1        0.0000
      4 O           2.7347    5.3437    4.8770 O.3     1  UNL1        0.0000
      5 C           2.3421    6.8011    2.2927 C.3     1  UNL1        0.0000
      6 C           2.7703    7.7702    1.2031 C.3     1  UNL1        0.0000
      7 C           5.9741    4.9309    3.6652 C.3     1  UNL1        0.0000
      8 C           6.1481    5.6640    4.9867 C.3     1  UNL1        0.0000
      9 C           2.6301    4.8911    6.2098 C.3     1  UNL1        0.0000
     10 C           2.3133    6.0745    7.1101 C.3     1  UNL1        0.0000
     11 H           2.2167    7.3217    3.2478 H       1  UNL1        0.0000
     12 H           1.3844    6.3343    2.0298 H       1  UNL1        0.0000
     13 H           2.8815    7.2389    0.2623 H       1  UNL1        0.0000
     14 H           2.0208    8.5480    1.0858 H       1  UNL1        0.0000
     15 H           3.7223    8.2256    1.4622 H       1  UNL1        0.0000
     16 H           5.8604    5.6505    2.8493 H       1  UNL1        0.0000
     17 H           6.8428    4.2962    3.4599 H       1  UNL1        0.0000
     18 H           6.2221    4.9480    5.8023 H       1  UNL1        0.0000
     19 H           7.0501    6.2707    4.9606 H       1  UNL1        0.0000
     20 H           5.2896    6.3061    5.1615 H       1  UNL1        0.0000
     21 H           3.5727    4.4188    6.5076 H       1  UNL1        0.0000
     22 H           1.8357    4.1410    6.2691 H       1  UNL1        0.0000
     23 H           1.3808    6.5385    6.7999 H       1  UNL1        0.0000
     24 H           2.2160    5.7348    8.1373 H       1  UNL1        0.0000
     25 H           3.1061    6.8168    7.0548 H       1  UNL1        0.0000
@<TRIPOS>BOND
     1    13     6    1
     2    14     6    1
     3     6    15    1
     4     6     5    1
     5    12     5    1
     6     5     2    1
     7     5    11    1
     8     2     1    1
     9    16     7    1
    10    17     7    1
    11     1     3    1
    12     1     4    1
    13     7     3    1
    14     7     8    1
    15     4     9    1
    16    19     8    1
    17     8    20    1
    18     8    18    1
    19     9    22    1
    20     9    21    1
    21     9    10    1
    22    23    10    1
    23    25    10    1
    24    10    24    1
