@<TRIPOS>MOLECULE
1
 25 24 0 0 0
SMALL
GASTEIGER

@<TRIPOS>ATOM
      1 SI          8.4811    6.3991    4.8055 Si      1  UNL1        0.0000
      2 O           9.3038    7.8376    4.8607 O.3     1  UNL1        0.0000
      3 O           8.7085    5.9057    3.2414 O.3     1  UNL1        0.0000
      4 O           9.5194    5.4307    5.6544 O.3     1  UNL1        0.0000
      5 C          10.6702    9.5776    5.7678 C.3     1  UNL1        0.0000
      6 H          10.9454   10.0771    6.6941 H       1  UNL1        0.0000
      7 H          11.5567    9.1323    5.3244 H       1  UNL1        0.0000
      8 H          10.2696   10.3125    5.0745 H       1  UNL1        0.0000
      9 C           9.3891    4.0580    5.8478 C.3     1  UNL1        0.0000
     10 H           8.3408    3.8124    6.0714 H       1  UNL1        0.0000
     11 H          10.0023    3.7980    6.7205 H       1  UNL1        0.0000
     12 C           9.8567    3.2710    4.6307 C.3     1  UNL1        0.0000
     13 H           9.7246    2.2029    4.7919 H       1  UNL1        0.0000
     14 H           9.2845    3.5981    3.7680 H       1  UNL1        0.0000
     15 H          10.9064    3.4771    4.4401 H       1  UNL1        0.0000
     16 C           8.1950    6.5311    2.1079 C.3     1  UNL1        0.0000
     17 H           7.1672    6.8692    2.3037 H       1  UNL1        0.0000
     18 H           8.1660    5.7772    1.3100 H       1  UNL1        0.0000
     19 C           9.0595    7.7104    1.6815 C.3     1  UNL1        0.0000
     20 H           8.6273    8.2124    0.8180 H       1  UNL1        0.0000
     21 H           9.1410    8.3968    2.5187 H       1  UNL1        0.0000
     22 H          10.0578    7.3626    1.4299 H       1  UNL1        0.0000
     23 C           9.6387    8.4921    6.0442 C.3     1  UNL1        0.0000
     24 H          10.0463    7.7645    6.7558 H       1  UNL1        0.0000
     25 H           8.7291    8.9271    6.4858 H       1  UNL1        0.0000
@<TRIPOS>BOND
     1    20    19    1
     2    18    16    1
     3    22    19    1
     4    19    16    1
     5    19    21    1
     6    16    17    1
     7    16     3    1
     8     3     1    1
     9    14    12    1
    10    15    12    1
    11    12    13    1
    12    12     9    1
    13     1     2    1
    14     1     4    1
    15     2    23    1
    16     8     5    1
    17     7     5    1
    18     4     9    1
    19     5    23    1
    20     5     6    1
    21     9    10    1
    22     9    11    1
    23    23    25    1
    24    23    24    1
