@<TRIPOS>MOLECULE
1
 36 37 0 0 0
SMALL
GASTEIGER

@<TRIPOS>ATOM
      1 SI          4.9419    1.5476   12.6030 Si      1  UNL1        0.0000
      2 C           6.1164    0.2296   13.4953 C.3     1  UNL1        0.0000
      3 C           6.3712    0.6603   14.9411 C.3     1  UNL1        0.0000
      4 C           7.4595    0.1620   12.7636 C.3     1  UNL1        0.0000
      5 C           5.5138   -1.1761   13.5017 C.3     1  UNL1        0.0000
      6 C           3.9887    0.5658   11.2441 C.ar    1  UNL1        0.0000
      7 C           4.6966   -0.0036   10.1861 C.ar    1  UNL1        0.0000
      8 C           4.0544   -0.6691    9.1587 C.ar    1  UNL1        0.0000
      9 C           2.6729   -0.7700    9.1555 C.ar    1  UNL1        0.0000
     10 C           1.9482   -0.2018   10.1883 C.ar    1  UNL1        0.0000
     11 C           2.6010    0.4557   11.2160 C.ar    1  UNL1        0.0000
     12 C           3.5825    2.0085   13.8946 C.ar    1  UNL1        0.0000
     13 C           3.3925    3.3421   14.2449 C.ar    1  UNL1        0.0000
     14 C           2.4261    3.7225   15.1589 C.ar    1  UNL1        0.0000
     15 C           1.6172    2.7661   15.7485 C.ar    1  UNL1        0.0000
     16 C           1.7838    1.4336   15.4122 C.ar    1  UNL1        0.0000
     17 C           2.7536    1.0650   14.4968 C.ar    1  UNL1        0.0000
     18 H           6.8446    1.6384   14.9779 H       1  UNL1        0.0000
     19 H           5.4393    0.7133   15.4992 H       1  UNL1        0.0000
     20 H           7.0257   -0.0535   15.4413 H       1  UNL1        0.0000
     21 H           7.9182    1.1481   12.6866 H       1  UNL1        0.0000
     22 H           8.1468   -0.4947   13.2977 H       1  UNL1        0.0000
     23 H           7.3326   -0.2389   11.7609 H       1  UNL1        0.0000
     24 H           6.2191   -1.8857   13.9353 H       1  UNL1        0.0000
     25 H           4.6041   -1.2100   14.0940 H       1  UNL1        0.0000
     26 H           5.2774   -1.5043   12.4924 H       1  UNL1        0.0000
     27 H           5.7755    0.0727   10.1701 H       1  UNL1        0.0000
     28 H           4.6297   -1.1064    8.3545 H       1  UNL1        0.0000
     29 H           2.1665   -1.2846    8.3519 H       1  UNL1        0.0000
     30 H           0.8696   -0.2704   10.1925 H       1  UNL1        0.0000
     31 H           2.0182    0.8950   12.0125 H       1  UNL1        0.0000
     32 H           2.8620    0.0224   14.2376 H       1  UNL1        0.0000
     33 H           1.1538    0.6799   15.8632 H       1  UNL1        0.0000
     34 H           0.8605    3.0575   16.4623 H       1  UNL1        0.0000
     35 H           2.3006    4.7658   15.4125 H       1  UNL1        0.0000
     36 H           4.0178    4.1029   13.7873 H       1  UNL1        0.0000
@<TRIPOS>BOND
     1    29     9    1
     2    28     8    1
     3     9     8   ar
     4     9    10   ar
     5     8     7   ar
     6    27     7    1
     7     7     6   ar
     8    10    30    1
     9    10    11   ar
    10    11     6   ar
    11    11    31    1
    12     6     1    1
    13    23     4    1
    14    26     5    1
    15     1     2    1
    16     1    12    1
    17    21     4    1
    18     4    22    1
    19     4     2    1
    20     2     5    1
    21     2     3    1
    22     5    24    1
    23     5    25    1
    24    36    13    1
    25    12    13   ar
    26    12    17   ar
    27    32    17    1
    28    13    14   ar
    29    17    16   ar
    30     3    18    1
    31     3    20    1
    32     3    19    1
    33    14    35    1
    34    14    15   ar
    35    16    15   ar
    36    16    33    1
    37    15    34    1
