@<TRIPOS>MOLECULE
1
 34 36 0 0 0
SMALL
GASTEIGER

@<TRIPOS>ATOM
      1 SI          8.5445    9.0755   16.9446 Si      1  UNL1        0.0000
      2 C           8.8182    7.7708   15.5541 C.ar    1  UNL1        0.0000
      3 C           9.8843    7.8522   14.6634 C.ar    1  UNL1        0.0000
      4 H          10.6184    8.6318   14.7903 H       1  UNL1        0.0000
      5 C          10.0309    6.9469   13.6277 C.ar    1  UNL1        0.0000
      6 H          10.8658    7.0408   12.9472 H       1  UNL1        0.0000
      7 C           9.1143    5.9226   13.4653 C.ar    1  UNL1        0.0000
      8 H           9.2259    5.2133   12.6574 H       1  UNL1        0.0000
      9 C           8.0589    5.8085   14.3542 C.ar    1  UNL1        0.0000
     10 H           7.3457    5.0028   14.2461 H       1  UNL1        0.0000
     11 C           7.9148    6.7245   15.3812 C.ar    1  UNL1        0.0000
     12 H           7.0845    6.6276   16.0656 H       1  UNL1        0.0000
     13 C          10.3033    9.2489   17.7201 C.ar    1  UNL1        0.0000
     14 C          11.2662    8.2576   17.5460 C.ar    1  UNL1        0.0000
     15 H          11.0282    7.3882   16.9517 H       1  UNL1        0.0000
     16 C          12.5200    8.3593   18.1225 C.ar    1  UNL1        0.0000
     17 H          13.2492    7.5766   17.9659 H       1  UNL1        0.0000
     18 C          12.8407    9.4571   18.9023 C.ar    1  UNL1        0.0000
     19 H          13.8195    9.5398   19.3532 H       1  UNL1        0.0000
     20 C          11.8920   10.4445   19.1049 C.ar    1  UNL1        0.0000
     21 H          12.1268   11.3013   19.7214 H       1  UNL1        0.0000
     22 C          10.6431   10.3350   18.5202 C.ar    1  UNL1        0.0000
     23 H           9.9141   11.1167   18.6866 H       1  UNL1        0.0000
     24 C           7.6291    8.0054   18.2627 C.ar    1  UNL1        0.0000
     25 C           8.3395    7.2674   19.2039 C.ar    1  UNL1        0.0000
     26 H           9.4182    7.3191   19.2100 H       1  UNL1        0.0000
     27 C           7.6936    6.4732   20.1354 C.ar    1  UNL1        0.0000
     28 H           8.2708    5.9114   20.8564 H       1  UNL1        0.0000
     29 C           6.3119    6.3971   20.1458 C.ar    1  UNL1        0.0000
     30 H           5.8043    5.7788   20.8726 H       1  UNL1        0.0000
     31 C           5.5852    7.1228   19.2172 C.ar    1  UNL1        0.0000
     32 H           4.5049    7.0717   19.2169 H       1  UNL1        0.0000
     33 C           6.2403    7.9142   18.2920 C.ar    1  UNL1        0.0000
     34 H           5.6589    8.4842   17.5786 H       1  UNL1        0.0000
@<TRIPOS>BOND
     1     8     7    1
     2     6     5    1
     3     7     5   ar
     4     7     9   ar
     5     5     3   ar
     6    10     9    1
     7     9    11   ar
     8     3     4    1
     9     3     2   ar
    10    11     2   ar
    11    11    12    1
    12     2     1    1
    13     1    13    1
    14     1    24    1
    15    15    14    1
    16    14    13   ar
    17    14    16   ar
    18    34    33    1
    19    13    22   ar
    20    17    16    1
    21    16    18   ar
    22    24    33   ar
    23    24    25   ar
    24    33    31   ar
    25    22    23    1
    26    22    20   ar
    27    18    20   ar
    28    18    19    1
    29    20    21    1
    30    25    26    1
    31    25    27   ar
    32    32    31    1
    33    31    29   ar
    34    27    29   ar
    35    27    28    1
    36    29    30    1
