@<TRIPOS>MOLECULE
1
 20 20 0 0 0
SMALL
GASTEIGER

@<TRIPOS>ATOM
      1 SI         15.6985   15.5657    5.6392 Si      1  UNL1        0.0000
      2 C          15.9508   17.4179    6.1295 C.ar    1  UNL1        0.0000
      3 C          17.1429   18.1050    5.9284 C.ar    1  UNL1        0.0000
      4 H          17.9781   17.5904    5.4710 H       1  UNL1        0.0000
      5 C          17.2882   19.4315    6.2943 C.ar    1  UNL1        0.0000
      6 H          18.2293   19.9378    6.1285 H       1  UNL1        0.0000
      7 C          16.2297   20.1111    6.8712 C.ar    1  UNL1        0.0000
      8 H          16.3382   21.1470    7.1602 H       1  UNL1        0.0000
      9 C          15.0283   19.4522    7.0693 C.ar    1  UNL1        0.0000
     10 H          14.1922   19.9762    7.5113 H       1  UNL1        0.0000
     11 C          14.8970   18.1253    6.7019 C.ar    1  UNL1        0.0000
     12 H          13.9512   17.6274    6.8554 H       1  UNL1        0.0000
     13 C          14.1181   15.6801    4.5186 C.3     1  UNL1        0.0000
     14 H          14.0327   16.6605    4.0609 H       1  UNL1        0.0000
     15 H          13.2232   15.5170    5.1094 H       1  UNL1        0.0000
     16 H          14.1202   14.9402    3.7245 H       1  UNL1        0.0000
     17 C          14.9932   14.7917    7.2748 C.3     1  UNL1        0.0000
     18 H          14.3603   15.4994    7.8010 H       1  UNL1        0.0000
     19 H          15.7807   14.4842    7.9557 H       1  UNL1        0.0000
     20 H          14.3942   13.9133    7.0551 H       1  UNL1        0.0000
@<TRIPOS>BOND
     1    16    13    1
     2    14    13    1
     3    13    15    1
     4    13     1    1
     5     4     3    1
     6     1     2    1
     7     1    17    1
     8     3     2   ar
     9     3     5   ar
    10     6     5    1
    11     2    11   ar
    12     5     7   ar
    13    11    12    1
    14    11     9   ar
    15     7     9   ar
    16     7     8    1
    17    20    17    1
    18     9    10    1
    19    17    18    1
    20    17    19    1
