@<TRIPOS>MOLECULE
1
 13 12 0 0 0
SMALL
GASTEIGER

@<TRIPOS>ATOM
      1 SI          5.3142   13.0156    8.1972 Si      1  UNL1        0.0000
      2 C           7.2362   12.7395    8.0663 C.3     1  UNL1        0.0000
      3 H           7.7559   13.5571    8.5557 H       1  UNL1        0.0000
      4 H           7.5968   12.6972    7.0428 H       1  UNL1        0.0000
      5 H           7.5370   11.8215    8.5638 H       1  UNL1        0.0000
      6 C           5.0778   14.7535    7.3705 C.3     1  UNL1        0.0000
      7 H           5.8095   15.4577    7.7544 H       1  UNL1        0.0000
      8 H           4.0922   15.1501    7.5933 H       1  UNL1        0.0000
      9 H           5.1810   14.7254    6.2890 H       1  UNL1        0.0000
     10 C           5.1963   13.4325   10.0834 C.3     1  UNL1        0.0000
     11 H           5.8498   14.2685   10.3133 H       1  UNL1        0.0000
     12 H           5.5099   12.5952   10.7003 H       1  UNL1        0.0000
     13 H           4.1936   13.7128   10.3850 H       1  UNL1        0.0000
@<TRIPOS>BOND
     1     9     6    1
     2     4     2    1
     3     6     8    1
     4     6     7    1
     5     6     1    1
     6     2     1    1
     7     2     3    1
     8     2     5    1
     9     1    10    1
    10    10    11    1
    11    10    13    1
    12    10    12    1
