@<TRIPOS>MOLECULE
1
 13 12 0 0 0
SMALL
GASTEIGER

@<TRIPOS>ATOM
      1 SI          2.1583    5.0727   -0.5915 Si      1  UNL1        0.0000
      2 C           0.3362    5.7264   -0.6591 C.3     1  UNL1        0.0000
      3 H          -0.0737    5.8268    0.3415 H       1  UNL1        0.0000
      4 H          -0.3270    5.0740   -1.2212 H       1  UNL1        0.0000
      5 H           0.3073    6.7069   -1.1241 H       1  UNL1        0.0000
      6 C           2.8252    5.4142   -2.3837 C.3     1  UNL1        0.0000
      7 H           2.7287    6.4710   -2.6107 H       1  UNL1        0.0000
      8 H           2.2878    4.8702   -3.1547 H       1  UNL1        0.0000
      9 H           3.8785    5.1605   -2.4684 H       1  UNL1        0.0000
     10 C           3.0802    6.4955    0.3436 C.3     1  UNL1        0.0000
     11 H           4.1585    6.3627    0.3213 H       1  UNL1        0.0000
     12 H           2.7736    6.5930    1.3791 H       1  UNL1        0.0000
     13 H           2.8613    7.4413   -0.1425 H       1  UNL1        0.0000
@<TRIPOS>BOND
     1     8     6    1
     2     7     6    1
     3     9     6    1
     4     6     1    1
     5     4     2    1
     6     5     2    1
     7     2     1    1
     8     2     3    1
     9     1    10    1
    10    13    10    1
    11    11    10    1
    12    10    12    1
