@<TRIPOS>MOLECULE
1
 14 14 0 0 0
SMALL
GASTEIGER

@<TRIPOS>ATOM
      1 SI          6.9393   17.6835    6.1861 Si      1  UNL1        0.0000
      2 H           6.2396   18.7431    6.9838 H       1  UNL1        0.0000
      3 H           8.3555   18.0782    6.4755 H       1  UNL1        0.0000
      4 C           6.7023   18.2989    4.4003 C.ar    1  UNL1        0.0000
      5 C           7.4986   17.8183    3.3676 C.ar    1  UNL1        0.0000
      6 H           8.2801   17.1045    3.5916 H       1  UNL1        0.0000
      7 C           7.3102   18.2335    2.0624 C.ar    1  UNL1        0.0000
      8 H           7.9427   17.8472    1.2743 H       1  UNL1        0.0000
      9 C           6.3090   19.1425    1.7622 C.ar    1  UNL1        0.0000
     10 H           6.1556   19.4662    0.7422 H       1  UNL1        0.0000
     11 C           5.5085   19.6355    2.7782 C.ar    1  UNL1        0.0000
     12 H           4.7262   20.3475    2.5532 H       1  UNL1        0.0000
     13 C           5.7085   19.2135    4.0796 C.ar    1  UNL1        0.0000
     14 H           5.0813   19.6070    4.8672 H       1  UNL1        0.0000
@<TRIPOS>BOND
     1    10     9    1
     2     8     7    1
     3     9     7   ar
     4     9    11   ar
     5     7     5   ar
     6    12    11    1
     7    11    13   ar
     8     5     6    1
     9     5     4   ar
    10    13     4   ar
    11    13    14    1
    12     4     1    1
    13     1     3    1
    14     1     2    1
