@<TRIPOS>MOLECULE
1
 22 21 0 0 0
SMALL
GASTEIGER

@<TRIPOS>ATOM
      1 SI         -1.8541    1.6022   20.0653 Si      1  UNL1        0.0000
      2 C          -1.8103    3.4597   19.4918 C.3     1  UNL1        0.0000
      3 H          -1.5581    4.0827   20.3505 H       1  UNL1        0.0000
      4 H          -1.0128    3.5940   18.7628 H       1  UNL1        0.0000
      5 C          -3.1114    3.9675   18.8822 C.3     1  UNL1        0.0000
      6 H          -3.3769    3.3707   18.0144 H       1  UNL1        0.0000
      7 H          -3.0115    5.0062   18.5715 H       1  UNL1        0.0000
      8 H          -3.9263    3.9030   19.5973 H       1  UNL1        0.0000
      9 C          -3.4451    1.3749   21.1482 C.3     1  UNL1        0.0000
     10 H          -4.3235    1.5078   20.5188 H       1  UNL1        0.0000
     11 H          -3.4938    0.3587   21.5347 H       1  UNL1        0.0000
     12 C          -3.5294    2.3398   22.3265 C.3     1  UNL1        0.0000
     13 H          -2.7122    2.1734   23.0229 H       1  UNL1        0.0000
     14 H          -4.4667    2.1992   22.8633 H       1  UNL1        0.0000
     15 H          -3.4847    3.3706   21.9878 H       1  UNL1        0.0000
     16 C          -0.3535    1.4620   21.2922 C.3     1  UNL1        0.0000
     17 H          -0.4882    2.2141   22.0708 H       1  UNL1        0.0000
     18 H          -0.3651    0.4945   21.7886 H       1  UNL1        0.0000
     19 C           1.0207    1.6612   20.6665 C.3     1  UNL1        0.0000
     20 H           1.2106    0.8984   19.9168 H       1  UNL1        0.0000
     21 H           1.7994    1.5922   21.4241 H       1  UNL1        0.0000
     22 H           1.0891    2.6356   20.1912 H       1  UNL1        0.0000
@<TRIPOS>BOND
     1     6     5    1
     2     7     5    1
     3     4     2    1
     4     5     2    1
     5     5     8    1
     6     2     1    1
     7     2     3    1
     8    20    19    1
     9     1     9    1
    10     1    16    1
    11    22    19    1
    12    10     9    1
    13    19    16    1
    14    19    21    1
    15     9    11    1
    16     9    12    1
    17    16    18    1
    18    16    17    1
    19    15    12    1
    20    12    14    1
    21    12    13    1
