@<TRIPOS>MOLECULE
1
 22 21 0 0 0
SMALL
GASTEIGER

@<TRIPOS>ATOM
      1 SI         -1.1802    0.6685   16.0277 Si      1  UNL1        0.0000
      2 C          -1.5454   -0.9065   14.9414 C.3     1  UNL1        0.0000
      3 H          -1.7336   -1.7695   15.5820 H       1  UNL1        0.0000
      4 H          -2.4691   -0.7337   14.3880 H       1  UNL1        0.0000
      5 C          -0.4415   -1.2715   13.9558 C.3     1  UNL1        0.0000
      6 H          -0.2564   -0.4576   13.2600 H       1  UNL1        0.0000
      7 H          -0.7208   -2.1533   13.3796 H       1  UNL1        0.0000
      8 H           0.4867   -1.4887   14.4770 H       1  UNL1        0.0000
      9 C          -2.0752    2.1675   15.1659 C.3     1  UNL1        0.0000
     10 H          -3.1423    1.9774   15.0955 H       1  UNL1        0.0000
     11 H          -1.9627    3.0543   15.7878 H       1  UNL1        0.0000
     12 C          -1.5599    2.4744   13.7614 C.3     1  UNL1        0.0000
     13 H          -0.5128    2.7604   13.7805 H       1  UNL1        0.0000
     14 H          -2.1250    3.2958   13.3231 H       1  UNL1        0.0000
     15 H          -1.6677    1.6088   13.1130 H       1  UNL1        0.0000
     16 C           0.6912    1.1607   15.8525 C.3     1  UNL1        0.0000
     17 H           1.3350    0.3877   16.2587 H       1  UNL1        0.0000
     18 H           0.9341    1.2397   14.7928 H       1  UNL1        0.0000
     19 C           1.0422    2.4741   16.5417 C.3     1  UNL1        0.0000
     20 H           0.4673    3.2973   16.1286 H       1  UNL1        0.0000
     21 H           2.0999    2.7007   16.4164 H       1  UNL1        0.0000
     22 H           0.8246    2.4049   17.6036 H       1  UNL1        0.0000
@<TRIPOS>BOND
     1    15    12    1
     2     6     5    1
     3    14    12    1
     4     7     5    1
     5    12    13    1
     6    12     9    1
     7     5     8    1
     8     5     2    1
     9     4     2    1
    10    18    16    1
    11     2     3    1
    12     2     1    1
    13    10     9    1
    14     9    11    1
    15     9     1    1
    16    16     1    1
    17    16    17    1
    18    16    19    1
    19    20    19    1
    20    21    19    1
    21    19    22    1
