@<TRIPOS>MOLECULE
1
 22 21 0 0 0
SMALL
GASTEIGER

@<TRIPOS>ATOM
      1 SI          4.9111   17.9980    3.4610 Si      1  UNL1        0.0000
      2 C           4.6559   16.5390    2.2070 C.3     1  UNL1        0.0000
      3 H           5.2290   15.6660    2.5108 H       1  UNL1        0.0000
      4 H           3.6058   16.2446    2.2478 H       1  UNL1        0.0000
      5 C           5.0166   16.8718    0.7651 C.3     1  UNL1        0.0000
      6 H           4.4390   17.7189    0.4069 H       1  UNL1        0.0000
      7 H           4.8223   16.0206    0.1145 H       1  UNL1        0.0000
      8 H           6.0697   17.1238    0.6863 H       1  UNL1        0.0000
      9 C           3.7680   19.4345    2.8286 C.3     1  UNL1        0.0000
     10 H           3.6977   20.1989    3.6003 H       1  UNL1        0.0000
     11 H           4.2360   19.9133    1.9697 H       1  UNL1        0.0000
     12 C           2.3594   18.9869    2.4473 C.3     1  UNL1        0.0000
     13 H           2.3850   18.2967    1.6096 H       1  UNL1        0.0000
     14 H           1.7513   19.8434    2.1603 H       1  UNL1        0.0000
     15 H           1.8702   18.4890    3.2802 H       1  UNL1        0.0000
     16 C           4.1856   17.3300    5.1329 C.3     1  UNL1        0.0000
     17 H           3.4479   16.5568    4.9131 H       1  UNL1        0.0000
     18 H           4.9698   16.8492    5.7145 H       1  UNL1        0.0000
     19 C           3.5410   18.4021    6.0014 C.3     1  UNL1        0.0000
     20 H           4.2513   19.1944    6.2161 H       1  UNL1        0.0000
     21 H           3.2097   17.9806    6.9492 H       1  UNL1        0.0000
     22 H           2.6809   18.8390    5.5030 H       1  UNL1        0.0000
@<TRIPOS>BOND
     1     7     5    1
     2     6     5    1
     3     8     5    1
     4     5     2    1
     5    13    12    1
     6    11     9    1
     7    14    12    1
     8     2     4    1
     9     2     3    1
    10     2     1    1
    11    12     9    1
    12    12    15    1
    13     9     1    1
    14     9    10    1
    15     1    16    1
    16    17    16    1
    17    16    18    1
    18    16    19    1
    19    22    19    1
    20    19    20    1
    21    19    21    1
