@<TRIPOS>MOLECULE
1
 22 21 0 0 0
SMALL
GASTEIGER

@<TRIPOS>ATOM
      1 SI         -1.5008    3.0987    2.5564 Si      1  UNL1        0.0000
      2 C          -0.6035    2.9079    0.8298 C.3     1  UNL1        0.0000
      3 H           0.4429    3.2052    0.9216 H       1  UNL1        0.0000
      4 H          -0.5953    1.8541    0.5547 H       1  UNL1        0.0000
      5 C          -1.2375    3.7024   -0.3050 C.3     1  UNL1        0.0000
      6 H          -2.2759    3.4160   -0.4486 H       1  UNL1        0.0000
      7 H          -0.7037    3.5200   -1.2374 H       1  UNL1        0.0000
      8 H          -1.2025    4.7691   -0.1026 H       1  UNL1        0.0000
      9 C          -2.8092    1.6773    2.8119 C.3     1  UNL1        0.0000
     10 H          -2.3484    0.7729    3.1973 H       1  UNL1        0.0000
     11 H          -3.5127    2.0039    3.5760 H       1  UNL1        0.0000
     12 C          -3.5849    1.3325    1.5451 C.3     1  UNL1        0.0000
     13 H          -4.1354    2.1941    1.1766 H       1  UNL1        0.0000
     14 H          -4.3014    0.5362    1.7423 H       1  UNL1        0.0000
     15 H          -2.9150    0.9973    0.7575 H       1  UNL1        0.0000
     16 C          -2.6844    4.6390    2.4187 C.3     1  UNL1        0.0000
     17 H          -2.1739    5.4962    1.9912 H       1  UNL1        0.0000
     18 H          -3.4729    4.3713    1.7140 H       1  UNL1        0.0000
     19 C          -3.3344    5.0745    3.7242 C.3     1  UNL1        0.0000
     20 H          -3.9174    4.2659    4.1559 H       1  UNL1        0.0000
     21 H          -4.0018    5.9191    3.5565 H       1  UNL1        0.0000
     22 H          -2.5783    5.3714    4.4452 H       1  UNL1        0.0000
@<TRIPOS>BOND
     1     7     5    1
     2     6     5    1
     3     5     8    1
     4     5     2    1
     5     4     2    1
     6    15    12    1
     7     2     3    1
     8     2     1    1
     9    13    12    1
    10    12    14    1
    11    12     9    1
    12    18    16    1
    13    17    16    1
    14    16     1    1
    15    16    19    1
    16     1     9    1
    17     9    10    1
    18     9    11    1
    19    21    19    1
    20    19    20    1
    21    19    22    1
