@<TRIPOS>MOLECULE
1
 22 21 0 0 0
SMALL
GASTEIGER

@<TRIPOS>ATOM
      1 SI          8.1870   20.7517    2.8720 Si      1  UNL1        0.0000
      2 C           7.5193   22.4599    3.5286 C.3     1  UNL1        0.0000
      3 H           6.4322   22.4660    3.4550 H       1  UNL1        0.0000
      4 H           7.7591   22.5759    4.5820 H       1  UNL1        0.0000
      5 C           8.0678   23.6734    2.7822 C.3     1  UNL1        0.0000
      6 H           9.1539   23.6972    2.8210 H       1  UNL1        0.0000
      7 H           7.6944   24.5925    3.2319 H       1  UNL1        0.0000
      8 H           7.7614   23.6615    1.7411 H       1  UNL1        0.0000
      9 C          10.0972   20.7152    3.2640 C.3     1  UNL1        0.0000
     10 H          10.4733   19.6933    3.2134 H       1  UNL1        0.0000
     11 H          10.6152   21.2737    2.4846 H       1  UNL1        0.0000
     12 C          10.4911   21.2938    4.6175 C.3     1  UNL1        0.0000
     13 H          10.1660   22.3260    4.7140 H       1  UNL1        0.0000
     14 H          11.5736   21.2669    4.7417 H       1  UNL1        0.0000
     15 H          10.0503   20.7166    5.4253 H       1  UNL1        0.0000
     16 C           7.9443   20.9184    0.9373 C.3     1  UNL1        0.0000
     17 H           7.6658   19.9587    0.5089 H       1  UNL1        0.0000
     18 H           7.0887   21.5731    0.7754 H       1  UNL1        0.0000
     19 C           9.1367   21.4682    0.1593 C.3     1  UNL1        0.0000
     20 H           9.4435   22.4383    0.5391 H       1  UNL1        0.0000
     21 H           8.8780   21.5852   -0.8924 H       1  UNL1        0.0000
     22 H           9.9857   20.7930    0.2212 H       1  UNL1        0.0000
@<TRIPOS>BOND
     1    21    19    1
     2    19    22    1
     3    19    20    1
     4    19    16    1
     5    17    16    1
     6    18    16    1
     7    16     1    1
     8     8     5    1
     9    11     9    1
    10     5     6    1
    11     5     7    1
    12     5     2    1
    13     1     9    1
    14     1     2    1
    15    10     9    1
    16     9    12    1
    17     3     2    1
    18     2     4    1
    19    12    13    1
    20    12    14    1
    21    12    15    1
