@<TRIPOS>MOLECULE
1
 22 21 0 0 0
SMALL
GASTEIGER

@<TRIPOS>ATOM
      1 SI         -0.2902    3.0963    6.3671 Si      1  UNL1        0.0000
      2 C           0.0065    4.7588    7.3309 C.3     1  UNL1        0.0000
      3 H          -0.1875    4.5655    8.3872 H       1  UNL1        0.0000
      4 H           1.0473    5.0649    7.2611 H       1  UNL1        0.0000
      5 C          -0.8628    5.9231    6.8772 C.3     1  UNL1        0.0000
      6 H          -0.6419    6.1819    5.8449 H       1  UNL1        0.0000
      7 H          -0.6754    6.8043    7.4894 H       1  UNL1        0.0000
      8 H          -1.9179    5.6731    6.9515 H       1  UNL1        0.0000
      9 C          -2.1549    2.6638    6.6556 C.3     1  UNL1        0.0000
     10 H          -2.7784    3.3297    6.0628 H       1  UNL1        0.0000
     11 H          -2.3496    1.6574    6.2888 H       1  UNL1        0.0000
     12 C          -2.5858    2.7522    8.1158 C.3     1  UNL1        0.0000
     13 H          -1.9735    2.1096    8.7431 H       1  UNL1        0.0000
     14 H          -3.6245    2.4433    8.2279 H       1  UNL1        0.0000
     15 H          -2.4971    3.7698    8.4855 H       1  UNL1        0.0000
     16 C           0.7723    1.7887    7.3357 C.3     1  UNL1        0.0000
     17 H           1.7956    1.7863    6.9658 H       1  UNL1        0.0000
     18 H           0.8236    2.0937    8.3818 H       1  UNL1        0.0000
     19 C           0.2271    0.3694    7.2568 C.3     1  UNL1        0.0000
     20 H          -0.7596    0.3074    7.7070 H       1  UNL1        0.0000
     21 H           0.8841   -0.3247    7.7792 H       1  UNL1        0.0000
     22 H           0.1515    0.0452    6.2227 H       1  UNL1        0.0000
@<TRIPOS>BOND
     1     6     5    1
     2    10     9    1
     3    22    19    1
     4    11     9    1
     5     1     9    1
     6     1     2    1
     7     1    16    1
     8     9    12    1
     9     5     8    1
    10     5     2    1
    11     5     7    1
    12    17    16    1
    13    19    16    1
    14    19    20    1
    15    19    21    1
    16     4     2    1
    17     2     3    1
    18    16    18    1
    19    12    14    1
    20    12    15    1
    21    12    13    1
