@<TRIPOS>MOLECULE
1
 22 21 0 0 0
SMALL
GASTEIGER

@<TRIPOS>ATOM
      1 SI          8.7142    2.8544    1.6889 Si      1  UNL1        0.0000
      2 C           7.5970    1.2594    1.5823 C.3     1  UNL1        0.0000
      3 H           7.8265    0.7301    0.6566 H       1  UNL1        0.0000
      4 H           7.8649    0.5931    2.4014 H       1  UNL1        0.0000
      5 C           6.0981    1.5175    1.6381 C.3     1  UNL1        0.0000
      6 H           5.8445    2.0637    2.5425 H       1  UNL1        0.0000
      7 H           5.5416    0.5807    1.6345 H       1  UNL1        0.0000
      8 H           5.7825    2.1045    0.7804 H       1  UNL1        0.0000
      9 C           8.0311    4.1944    0.4721 C.3     1  UNL1        0.0000
     10 H           7.0548    4.5068    0.8285 H       1  UNL1        0.0000
     11 H           8.6677    5.0743    0.5195 H       1  UNL1        0.0000
     12 C           7.9170    3.7316   -0.9767 C.3     1  UNL1        0.0000
     13 H           8.8926    3.4753   -1.3815 H       1  UNL1        0.0000
     14 H           7.4907    4.5185   -1.5994 H       1  UNL1        0.0000
     15 H           7.2792    2.8550   -1.0555 H       1  UNL1        0.0000
     16 C          10.3806    2.1804    0.9444 C.3     1  UNL1        0.0000
     17 H          10.2149    1.8941   -0.0955 H       1  UNL1        0.0000
     18 H          11.1278    2.9693    0.9392 H       1  UNL1        0.0000
     19 C          10.9653    0.9866    1.6892 C.3     1  UNL1        0.0000
     20 H          11.1411    1.2434    2.7296 H       1  UNL1        0.0000
     21 H          11.9115    0.6816    1.2443 H       1  UNL1        0.0000
     22 H          10.2841    0.1417    1.6586 H       1  UNL1        0.0000
@<TRIPOS>BOND
     1    14    12    1
     2    13    12    1
     3    15    12    1
     4    12     9    1
     5    17    16    1
     6     9    11    1
     7     9    10    1
     8     9     1    1
     9     3     2    1
    10     8     5    1
    11    18    16    1
    12    16     1    1
    13    16    19    1
    14    21    19    1
    15     2     5    1
    16     2     1    1
    17     2     4    1
    18     7     5    1
    19     5     6    1
    20    22    19    1
    21    19    20    1
