@<TRIPOS>MOLECULE
1
 22 21 0 0 0
SMALL
GASTEIGER

@<TRIPOS>ATOM
      1 SI          8.8660    2.8541    6.0121 Si      1  UNL1        0.0000
      2 C           9.9833    1.2591    6.1181 C.3     1  UNL1        0.0000
      3 H           9.7539    0.7296    7.0438 H       1  UNL1        0.0000
      4 H           9.7154    0.5930    5.2989 H       1  UNL1        0.0000
      5 C          11.4821    1.5174    6.0621 C.3     1  UNL1        0.0000
      6 H          11.7356    2.0638    5.1578 H       1  UNL1        0.0000
      7 H          12.0387    0.5806    6.0656 H       1  UNL1        0.0000
      8 H          11.7977    2.1043    6.9199 H       1  UNL1        0.0000
      9 C           9.5492    4.1943    7.2285 C.3     1  UNL1        0.0000
     10 H          10.5255    4.5066    6.8721 H       1  UNL1        0.0000
     11 H           8.9126    5.0741    7.1810 H       1  UNL1        0.0000
     12 C           9.6630    3.7314    8.6772 C.3     1  UNL1        0.0000
     13 H           8.6874    3.4752    9.0819 H       1  UNL1        0.0000
     14 H          10.0894    4.5183    9.3000 H       1  UNL1        0.0000
     15 H          10.3007    2.8547    8.7559 H       1  UNL1        0.0000
     16 C           7.1994    2.1800    6.7561 C.3     1  UNL1        0.0000
     17 H           7.3649    1.8937    7.7960 H       1  UNL1        0.0000
     18 H           6.4524    2.9691    6.7610 H       1  UNL1        0.0000
     19 C           6.6147    0.9865    6.0110 C.3     1  UNL1        0.0000
     20 H           6.4390    1.2433    4.9705 H       1  UNL1        0.0000
     21 H           5.6684    0.6815    6.4558 H       1  UNL1        0.0000
     22 H           7.2958    0.1415    6.0416 H       1  UNL1        0.0000
@<TRIPOS>BOND
     1    20    19    1
     2     6     5    1
     3     4     2    1
     4    19    22    1
     5    19    21    1
     6    19    16    1
     7     1     2    1
     8     1    16    1
     9     1     9    1
    10     5     7    1
    11     5     2    1
    12     5     8    1
    13     2     3    1
    14    16    18    1
    15    16    17    1
    16    10     9    1
    17    11     9    1
    18     9    12    1
    19    12    15    1
    20    12    13    1
    21    12    14    1
