@<TRIPOS>MOLECULE
1
 22 21 0 0 0
SMALL
GASTEIGER

@<TRIPOS>ATOM
      1 SI         -0.0670    4.0138    1.7744 Si      1  UNL1        0.0000
      2 C           1.5993    4.6017    0.9550 C.3     1  UNL1        0.0000
      3 H           2.2243    3.7478    0.7083 H       1  UNL1        0.0000
      4 H           1.3572    5.0966    0.0127 H       1  UNL1        0.0000
      5 C           2.4199    5.5595    1.8073 C.3     1  UNL1        0.0000
      6 H           1.8356    6.4357    2.0743 H       1  UNL1        0.0000
      7 H           3.3110    5.8877    1.2733 H       1  UNL1        0.0000
      8 H           2.7364    5.0693    2.7237 H       1  UNL1        0.0000
      9 C          -0.8289    2.6856    0.5810 C.3     1  UNL1        0.0000
     10 H          -0.2348    1.7762    0.6394 H       1  UNL1        0.0000
     11 H          -1.8194    2.4253    0.9403 H       1  UNL1        0.0000
     12 C          -0.9141    3.1440   -0.8704 C.3     1  UNL1        0.0000
     13 H          -1.5119    4.0479   -0.9590 H       1  UNL1        0.0000
     14 H          -1.3716    2.3727   -1.4907 H       1  UNL1        0.0000
     15 H           0.0744    3.3545   -1.2708 H       1  UNL1        0.0000
     16 C          -1.0875    5.6725    1.7207 C.3     1  UNL1        0.0000
     17 H          -0.8152    6.2773    2.5849 H       1  UNL1        0.0000
     18 H          -0.7926    6.2376    0.8360 H       1  UNL1        0.0000
     19 C          -2.5981    5.4971    1.7074 C.3     1  UNL1        0.0000
     20 H          -2.9130    4.9727    0.8093 H       1  UNL1        0.0000
     21 H          -3.1035    6.4623    1.7351 H       1  UNL1        0.0000
     22 H          -2.9151    4.9198    2.5712 H       1  UNL1        0.0000
@<TRIPOS>BOND
     1    14    12    1
     2    15    12    1
     3    13    12    1
     4    12     9    1
     5     4     2    1
     6     9    10    1
     7     9    11    1
     8     9     1    1
     9     3     2    1
    10    20    19    1
    11    18    16    1
    12     2     1    1
    13     2     5    1
    14     7     5    1
    15    19    16    1
    16    19    21    1
    17    19    22    1
    18    16     1    1
    19    16    17    1
    20     5     6    1
    21     5     8    1
