@<TRIPOS>MOLECULE
1
 22 21 0 0 0
SMALL
GASTEIGER

@<TRIPOS>ATOM
      1 SI         -0.1759    4.0148    5.9616 Si      1  UNL1        0.0000
      2 C          -1.8422    4.6030    6.7808 C.3     1  UNL1        0.0000
      3 H          -2.4667    3.7490    7.0285 H       1  UNL1        0.0000
      4 H          -1.6003    5.0991    7.7225 H       1  UNL1        0.0000
      5 C          -2.6633    5.5593    5.9274 C.3     1  UNL1        0.0000
      6 H          -2.0793    6.4354    5.6590 H       1  UNL1        0.0000
      7 H          -3.5544    5.8880    6.4611 H       1  UNL1        0.0000
      8 H          -2.9799    5.0678    5.0117 H       1  UNL1        0.0000
      9 C           0.5861    2.6883    7.1569 C.3     1  UNL1        0.0000
     10 H          -0.0068    1.7783    7.0984 H       1  UNL1        0.0000
     11 H           1.5774    2.4290    6.7993 H       1  UNL1        0.0000
     12 C           0.6688    3.1476    8.6083 C.3     1  UNL1        0.0000
     13 H           1.2654    4.0523    8.6972 H       1  UNL1        0.0000
     14 H           1.1265    2.3773    9.2297 H       1  UNL1        0.0000
     15 H          -0.3205    3.3571    9.0073 H       1  UNL1        0.0000
     16 C           0.8450    5.6733    6.0155 C.3     1  UNL1        0.0000
     17 H           0.5733    6.2779    5.1509 H       1  UNL1        0.0000
     18 H           0.5497    6.2389    6.8998 H       1  UNL1        0.0000
     19 C           2.3556    5.4979    6.0297 C.3     1  UNL1        0.0000
     20 H           2.6698    4.9737    6.9282 H       1  UNL1        0.0000
     21 H           2.8612    6.4630    6.0020 H       1  UNL1        0.0000
     22 H           2.6729    4.9202    5.1663 H       1  UNL1        0.0000
@<TRIPOS>BOND
     1     8     5    1
     2    17    16    1
     3    22    19    1
     4     6     5    1
     5     5     7    1
     6     5     2    1
     7     1    16    1
     8     1     2    1
     9     1     9    1
    10    21    19    1
    11    16    19    1
    12    16    18    1
    13    19    20    1
    14     2     3    1
    15     2     4    1
    16    11     9    1
    17    10     9    1
    18     9    12    1
    19    12    13    1
    20    12    15    1
    21    12    14    1
