@<TRIPOS>MOLECULE
1
 34 36 0 0 0
SMALL
GASTEIGER

@<TRIPOS>ATOM
      1 SI         -1.7572   -0.9672   -3.4395 Si      1  UNL1        0.0000
      2 N           0.2638    0.0126   -3.1334 N.4     1  UNL1        0.0000
      3 C          -1.2197   -2.5520   -2.4477 C.ar    1  UNL1        0.0000
      4 C          -1.4442   -2.5955   -1.0709 C.ar    1  UNL1        0.0000
      5 C          -1.1042   -3.7063   -0.3203 C.ar    1  UNL1        0.0000
      6 C          -0.5398   -4.8117   -0.9356 C.ar    1  UNL1        0.0000
      7 C          -0.3237   -4.7968   -2.3031 C.ar    1  UNL1        0.0000
      8 C          -0.6613   -3.6804   -3.0481 C.ar    1  UNL1        0.0000
      9 C          -0.9254   -1.3530   -5.1376 C.ar    1  UNL1        0.0000
     10 C          -1.6165   -1.7113   -6.2877 C.ar    1  UNL1        0.0000
     11 C          -0.9462   -1.9234   -7.4809 C.ar    1  UNL1        0.0000
     12 C           0.4283   -1.7670   -7.5409 C.ar    1  UNL1        0.0000
     13 C           1.1333   -1.3968   -6.4066 C.ar    1  UNL1        0.0000
     14 C           0.4594   -1.1929   -5.2156 C.ar    1  UNL1        0.0000
     15 C           1.1580   -0.8136   -3.9396 C.3     1  UNL1        0.0000
     16 C           0.1919    1.3585   -3.6806 C.3     1  UNL1        0.0000
     17 C           0.6548    0.0515   -1.7364 C.3     1  UNL1        0.0000
     18 H          -1.8953   -1.7422   -0.5811 H       1  UNL1        0.0000
     19 H          -1.2841   -3.7143    0.7450 H       1  UNL1        0.0000
     20 H          -0.2764   -5.6822   -0.3530 H       1  UNL1        0.0000
     21 H           0.1076   -5.6590   -2.7911 H       1  UNL1        0.0000
     22 H          -0.4924   -3.6846   -4.1155 H       1  UNL1        0.0000
     23 H          -2.6901   -1.8271   -6.2450 H       1  UNL1        0.0000
     24 H          -1.4951   -2.2059   -8.3669 H       1  UNL1        0.0000
     25 H           0.9523   -1.9271   -8.4713 H       1  UNL1        0.0000
     26 H           2.2059   -1.2696   -6.4517 H       1  UNL1        0.0000
     27 H           1.3793   -1.7256   -3.3765 H       1  UNL1        0.0000
     28 H           2.1049   -0.2966   -4.1417 H       1  UNL1        0.0000
     29 H           1.1625    1.8621   -3.6184 H       1  UNL1        0.0000
     30 H          -0.1125    1.3108   -4.7240 H       1  UNL1        0.0000
     31 H          -0.5439    1.9417   -3.1291 H       1  UNL1        0.0000
     32 H           0.6530   -0.9568   -1.3277 H       1  UNL1        0.0000
     33 H           1.6518    0.4864   -1.6099 H       1  UNL1        0.0000
     34 H          -0.0612    0.6524   -1.1791 H       1  UNL1        0.0000
@<TRIPOS>BOND
     1    25    12    1
     2    24    11    1
     3    12    11   ar
     4    12    13   ar
     5    11    10   ar
     6    26    13    1
     7    13    14   ar
     8    10    23    1
     9    10     9   ar
    10    14     9   ar
    11    14    15    1
    12     9     1    1
    13    30    16    1
    14    28    15    1
    15    22     8    1
    16    15    27    1
    17    15     2    1
    18    16    29    1
    19    16     2    1
    20    16    31    1
    21     1     2    1
    22     1     3    1
    23     2    17    1
    24     8     3   ar
    25     8     7   ar
    26    21     7    1
    27     3     4   ar
    28     7     6   ar
    29    17    33    1
    30    17    32    1
    31    17    34    1
    32     4    18    1
    33     4     5   ar
    34     6    20    1
    35     6     5   ar
    36     5    19    1
