@<TRIPOS>MOLECULE
1
 105 110 0 0 0
SMALL
GASTEIGER

@<TRIPOS>ATOM
      1 SI          1.7113    3.6030    3.5318 Si      1  UNL1        0.0000
      2 N           1.0534    1.9573    7.1461 N.pl3   1  UNL1        0.0000
      3 N           1.3161    1.0751    5.2205 N.pl3   1  UNL1        0.0000
      4 N           2.5377    2.7345    2.1102 N.3     1  UNL1        0.0000
      5 N           3.5667    3.8569    3.5744 N.3     1  UNL1        0.0000
      6 C           1.4569    2.4438    5.0226 C.2     1  UNL1        0.0000
      7 C           1.0774    0.7533    6.5167 C.3     1  UNL1        0.0000
      8 C           1.2619    2.9797    6.2605 C.2     1  UNL1        0.0000
      9 H           1.2515    4.0036    6.5711 H       1  UNL1        0.0000
     10 C           0.8601    2.1562    8.5340 C.ar    1  UNL1        0.0000
     11 C           1.9659    2.1212    9.3877 C.ar    1  UNL1        0.0000
     12 C           1.7617    2.3426   10.7425 C.ar    1  UNL1        0.0000
     13 H           2.6012    2.3212   11.4205 H       1  UNL1        0.0000
     14 C           0.4968    2.5959   11.2363 C.ar    1  UNL1        0.0000
     15 H           0.3546    2.7686   12.2930 H       1  UNL1        0.0000
     16 C          -0.5859    2.6327   10.3793 C.ar    1  UNL1        0.0000
     17 H          -1.5686    2.8381   10.7752 H       1  UNL1        0.0000
     18 C          -0.4249    2.4127    9.0183 C.ar    1  UNL1        0.0000
     19 C           3.3579    1.8636    8.8604 C.3     1  UNL1        0.0000
     20 H           3.3025    1.7008    7.7807 H       1  UNL1        0.0000
     21 C           4.2610    3.0738    9.1108 C.3     1  UNL1        0.0000
     22 H           3.8234    3.9727    8.6812 H       1  UNL1        0.0000
     23 H           5.2363    2.9138    8.6561 H       1  UNL1        0.0000
     24 H           4.4029    3.2389   10.1759 H       1  UNL1        0.0000
     25 C           3.9472    0.6008    9.4909 C.3     1  UNL1        0.0000
     26 H           4.0492    0.7129   10.5672 H       1  UNL1        0.0000
     27 H           4.9313    0.3984    9.0741 H       1  UNL1        0.0000
     28 H           3.3036   -0.2524    9.2912 H       1  UNL1        0.0000
     29 C          -1.6153    2.4750    8.0906 C.3     1  UNL1        0.0000
     30 H          -1.2908    2.2137    7.0796 H       1  UNL1        0.0000
     31 C          -2.6897    1.4704    8.5085 C.3     1  UNL1        0.0000
     32 H          -3.0861    1.7060    9.4928 H       1  UNL1        0.0000
     33 H          -2.2747    0.4657    8.5344 H       1  UNL1        0.0000
     34 H          -3.5129    1.4896    7.7976 H       1  UNL1        0.0000
     35 C          -2.1822    3.8964    8.0555 C.3     1  UNL1        0.0000
     36 H          -2.5872    4.1753    9.0254 H       1  UNL1        0.0000
     37 H          -2.9765    3.9657    7.3157 H       1  UNL1        0.0000
     38 H          -1.4032    4.6092    7.7934 H       1  UNL1        0.0000
     39 C           1.3117    0.0542    4.2391 C.ar    1  UNL1        0.0000
     40 C           0.0845   -0.3525    3.7043 C.ar    1  UNL1        0.0000
     41 C           0.0720   -1.4141    2.8098 C.ar    1  UNL1        0.0000
     42 H          -0.8606   -1.7506    2.3864 H       1  UNL1        0.0000
     43 C           1.2443   -2.0586    2.4661 C.ar    1  UNL1        0.0000
     44 H           1.2200   -2.8876    1.7740 H       1  UNL1        0.0000
     45 C           2.4476   -1.6606    3.0186 C.ar    1  UNL1        0.0000
     46 H           3.3472   -2.1944    2.7565 H       1  UNL1        0.0000
     47 C           2.5020   -0.5993    3.9122 C.ar    1  UNL1        0.0000
     48 C          -1.1950    0.2954    4.1787 C.3     1  UNL1        0.0000
     49 H          -0.9699    1.3268    4.4736 H       1  UNL1        0.0000
     50 C          -1.6787   -0.4634    5.4194 C.3     1  UNL1        0.0000
     51 H          -1.8632   -1.5067    5.1728 H       1  UNL1        0.0000
     52 H          -2.6000   -0.0249    5.7946 H       1  UNL1        0.0000
     53 H          -0.9175   -0.4192    6.1982 H       1  UNL1        0.0000
     54 C          -2.2951    0.3428    3.1193 C.3     1  UNL1        0.0000
     55 H          -1.9217    0.7578    2.1863 H       1  UNL1        0.0000
     56 H          -3.1107    0.9707    3.4720 H       1  UNL1        0.0000
     57 H          -2.6983   -0.6482    2.9270 H       1  UNL1        0.0000
     58 C           3.7861   -0.1848    4.5895 C.3     1  UNL1        0.0000
     59 H           3.7701    0.9063    4.6972 H       1  UNL1        0.0000
     60 C           5.0394   -0.5695    3.8059 C.3     1  UNL1        0.0000
     61 H           5.2271   -1.6390    3.8727 H       1  UNL1        0.0000
     62 H           5.9053   -0.0554    4.2197 H       1  UNL1        0.0000
     63 H           4.9384   -0.3023    2.7563 H       1  UNL1        0.0000
     64 C           3.8317   -0.8176    5.9853 C.3     1  UNL1        0.0000
     65 H           2.9488   -0.5384    6.5597 H       1  UNL1        0.0000
     66 H           4.7232   -0.4941    6.5183 H       1  UNL1        0.0000
     67 H           3.8527   -1.9021    5.9004 H       1  UNL1        0.0000
     68 C           3.6977    3.3159    2.3782 C.3     1  UNL1        0.0000
     69 C           2.0665    2.1882    0.8526 C.3     1  UNL1        0.0000
     70 C           0.5866    1.8634    1.0473 C.3     1  UNL1        0.0000
     71 H           0.4580    1.2359    1.9230 H       1  UNL1        0.0000
     72 H           0.1999    1.3379    0.1778 H       1  UNL1        0.0000
     73 H           0.0277    2.7859    1.1862 H       1  UNL1        0.0000
     74 C           2.1959    3.1994   -0.2933 C.3     1  UNL1        0.0000
     75 H           1.8700    4.1804    0.0425 H       1  UNL1        0.0000
     76 H           1.5708    2.8883   -1.1267 H       1  UNL1        0.0000
     77 H           3.2213    3.2730   -0.6444 H       1  UNL1        0.0000
     78 C           2.8375    0.9071    0.5129 C.3     1  UNL1        0.0000
     79 H           3.8943    1.1212    0.3721 H       1  UNL1        0.0000
     80 H           2.4493    0.4781   -0.4074 H       1  UNL1        0.0000
     81 H           2.7240    0.1789    1.3119 H       1  UNL1        0.0000
     82 C           4.5318    4.6095    4.3504 C.3     1  UNL1        0.0000
     83 C           5.1130    5.7877    3.5606 C.3     1  UNL1        0.0000
     84 H           5.8402    5.4548    2.8257 H       1  UNL1        0.0000
     85 H           5.6064    6.4779    4.2405 H       1  UNL1        0.0000
     86 H           4.3116    6.3131    3.0479 H       1  UNL1        0.0000
     87 C           5.6539    3.6730    4.8202 C.3     1  UNL1        0.0000
     88 H           5.2344    2.8323    5.3692 H       1  UNL1        0.0000
     89 H           6.3339    4.2121    5.4750 H       1  UNL1        0.0000
     90 H           6.2189    3.2934    3.9727 H       1  UNL1        0.0000
     91 C           3.7907    5.1543    5.5707 C.3     1  UNL1        0.0000
     92 H           2.9503    5.7623    5.2460 H       1  UNL1        0.0000
     93 H           4.4584    5.7625    6.1752 H       1  UNL1        0.0000
     94 H           3.4198    4.3331    6.1746 H       1  UNL1        0.0000
     95 C           4.8729    3.3996    1.4971 C.ar    1  UNL1        0.0000
     96 C           4.9913    4.4880    0.6349 C.ar    1  UNL1        0.0000
     97 H           4.2246    5.2477    0.6362 H       1  UNL1        0.0000
     98 C           6.0884    4.5908   -0.2006 C.ar    1  UNL1        0.0000
     99 H           6.1733    5.4369   -0.8659 H       1  UNL1        0.0000
    100 C           7.0747    3.6176   -0.1842 C.ar    1  UNL1        0.0000
    101 H           7.9304    3.7013   -0.8378 H       1  UNL1        0.0000
    102 C           6.9626    2.5391    0.6757 C.ar    1  UNL1        0.0000
    103 H           7.7300    1.7791    0.6970 H       1  UNL1        0.0000
    104 C           5.8664    2.4287    1.5146 C.ar    1  UNL1        0.0000
    105 H           5.7825    1.5891    2.1868 H       1  UNL1        0.0000
@<TRIPOS>BOND
     1    76    74    1
     2    99    98    1
     3   101   100    1
     4    77    74    1
     5    80    78    1
     6    74    75    1
     7    74    69    1
     8    98   100   ar
     9    98    96   ar
    10   100   102   ar
    11    72    70    1
    12    79    78    1
    13    78    69    1
    14    78    81    1
    15    96    97    1
    16    96    95   ar
    17   102   103    1
    18   102   104   ar
    19    69    70    1
    20    69     4    1
    21    70    73    1
    22    70    71    1
    23    95   104   ar
    24    95    68    1
    25   104   105    1
    26    44    43    1
    27     4    68    1
    28     4     1    1
    29    55    54    1
    30    68     5    1
    31    42    41    1
    32    43    41   ar
    33    43    45   ar
    34    63    60    1
    35    46    45    1
    36    41    40   ar
    37    84    83    1
    38    57    54    1
    39    45    47   ar
    40    86    83    1
    41    54    56    1
    42    54    48    1
    43     1     5    1
    44     1     6    1
    45    83    85    1
    46    83    82    1
    47     5    82    1
    48    40    48    1
    49    40    39   ar
    50    60    61    1
    51    60    62    1
    52    60    58    1
    53    47    39   ar
    54    47    58    1
    55    90    87    1
    56    48    49    1
    57    48    50    1
    58    39     3    1
    59    82    87    1
    60    82    91    1
    61    58    59    1
    62    58    64    1
    63    87    88    1
    64    87    89    1
    65     6     3    1
    66     6     8    2
    67    51    50    1
    68     3     7    1
    69    92    91    1
    70    50    52    1
    71    50    53    1
    72    91    94    1
    73    91    93    1
    74    67    64    1
    75    64    66    1
    76    64    65    1
    77     8     9    1
    78     8     2    1
    79     7     2    1
    80    30    29    1
    81     2    10    1
    82    37    35    1
    83    20    19    1
    84    38    35    1
    85    34    31    1
    86    35    29    1
    87    35    36    1
    88    29    31    1
    89    29    18    1
    90    31    33    1
    91    31    32    1
    92    10    18   ar
    93    10    11   ar
    94    23    21    1
    95    22    21    1
    96    19    21    1
    97    19    11    1
    98    19    25    1
    99    18    16   ar
   100    27    25    1
   101    21    24    1
   102    28    25    1
   103    11    12   ar
   104    25    26    1
   105    16    17    1
   106    16    14   ar
   107    12    14   ar
   108    12    13    1
   109    14    15    1
   110     1    68    0
