@<TRIPOS>MOLECULE
3
 73 80 0 0 0
SMALL
GASTEIGER

@<TRIPOS>ATOM
      1 P           4.6895    4.3438   10.3300 P.3     1  UNL1        0.0000
      2 P           6.3234    0.1034   12.5062 P.3     1  UNL1        0.0000
      3 SI          5.1778    1.8365   10.9178 Si      1  UNL1        0.0000
      4 C           5.4294    5.7105    9.3784 C.ar    1  UNL1        0.0000
      5 C           4.7678    6.2054    8.2570 C.ar    1  UNL1        0.0000
      6 C           5.3532    7.1889    7.4826 C.ar    1  UNL1        0.0000
      7 C           6.6090    7.6766    7.8078 C.ar    1  UNL1        0.0000
      8 C           7.2793    7.1732    8.9102 C.ar    1  UNL1        0.0000
      9 C           6.6976    6.1907    9.6909 C.ar    1  UNL1        0.0000
     10 C           2.9567    4.8876   10.5285 C.ar    1  UNL1        0.0000
     11 C           2.6242    6.2334   10.6462 C.ar    1  UNL1        0.0000
     12 C           1.3137    6.6039   10.8840 C.ar    1  UNL1        0.0000
     13 C           0.3290    5.6379   11.0161 C.ar    1  UNL1        0.0000
     14 C           0.6573    4.2974   10.9068 C.ar    1  UNL1        0.0000
     15 C           1.9667    3.9230   10.6636 C.ar    1  UNL1        0.0000
     16 C           4.3700    2.4575   12.5498 C.ar    1  UNL1        0.0000
     17 C           4.4277    3.8007   12.9234 C.ar    1  UNL1        0.0000
     18 C           3.7438    4.2361   14.0488 C.ar    1  UNL1        0.0000
     19 C           3.0077    3.3445   14.8106 C.ar    1  UNL1        0.0000
     20 C           2.9425    2.0108   14.4435 C.ar    1  UNL1        0.0000
     21 C           3.6175    1.5784   13.3162 C.ar    1  UNL1        0.0000
     22 C           5.2096    4.7454   12.0651 C.3     1  UNL1        0.0000
     23 C           5.9791   -0.8690   14.0082 C.ar    1  UNL1        0.0000
     24 C           5.6360   -0.2345   15.1983 C.ar    1  UNL1        0.0000
     25 C           5.3033   -0.9834   16.3125 C.ar    1  UNL1        0.0000
     26 C           5.2995   -2.3669   16.2476 C.ar    1  UNL1        0.0000
     27 C           5.6228   -3.0024   15.0592 C.ar    1  UNL1        0.0000
     28 C           5.9529   -2.2597   13.9415 C.ar    1  UNL1        0.0000
     29 C           7.7488   -0.7788   11.7799 C.ar    1  UNL1        0.0000
     30 C           7.9158   -0.7618   10.4015 C.ar    1  UNL1        0.0000
     31 C           9.0346   -1.3388    9.8274 C.ar    1  UNL1        0.0000
     32 C           9.9934   -1.9366   10.6272 C.ar    1  UNL1        0.0000
     33 C           9.8317   -1.9554   12.0034 C.ar    1  UNL1        0.0000
     34 C           8.7176   -1.3756   12.5807 C.ar    1  UNL1        0.0000
     35 C           7.0047    2.4388   10.8878 C.ar    1  UNL1        0.0000
     36 C           7.8630    2.2010   11.9620 C.ar    1  UNL1        0.0000
     37 C           9.2013    2.5535   11.8696 C.ar    1  UNL1        0.0000
     38 C           9.6923    3.1465   10.7189 C.ar    1  UNL1        0.0000
     39 C           8.8480    3.3787    9.6462 C.ar    1  UNL1        0.0000
     40 C           7.5151    3.0196    9.7352 C.ar    1  UNL1        0.0000
     41 C           7.3106    1.5246   13.1776 C.3     1  UNL1        0.0000
     42 H           3.7919    5.8189    8.0018 H       1  UNL1        0.0000
     43 H           4.8304    7.5748    6.6197 H       1  UNL1        0.0000
     44 H           7.0660    8.4438    7.2005 H       1  UNL1        0.0000
     45 H           8.2619    7.5450    9.1626 H       1  UNL1        0.0000
     46 H           7.2350    5.7952   10.5403 H       1  UNL1        0.0000
     47 H           3.3910    6.9898   10.5453 H       1  UNL1        0.0000
     48 H           1.0594    7.6506   10.9690 H       1  UNL1        0.0000
     49 H          -0.6933    5.9318   11.2029 H       1  UNL1        0.0000
     50 H          -0.1052    3.5399   11.0107 H       1  UNL1        0.0000
     51 H           2.2256    2.8761   10.5745 H       1  UNL1        0.0000
     52 H           3.7855    5.2795   14.3302 H       1  UNL1        0.0000
     53 H           2.4798    3.6934   15.6859 H       1  UNL1        0.0000
     54 H           2.3623    1.3129   15.0289 H       1  UNL1        0.0000
     55 H           3.5515    0.5392   13.0156 H       1  UNL1        0.0000
     56 H           6.2817    4.5545   12.1626 H       1  UNL1        0.0000
     57 H           5.0044    5.7891   12.3166 H       1  UNL1        0.0000
     58 H           5.6234    0.8443   15.2545 H       1  UNL1        0.0000
     59 H           5.0440   -0.4843   17.2350 H       1  UNL1        0.0000
     60 H           5.0400   -2.9488   17.1196 H       1  UNL1        0.0000
     61 H           5.6136   -4.0811   15.0033 H       1  UNL1        0.0000
     62 H           6.1979   -2.7524   13.0118 H       1  UNL1        0.0000
     63 H           7.1635   -0.2970    9.7779 H       1  UNL1        0.0000
     64 H           9.1552   -1.3196    8.7546 H       1  UNL1        0.0000
     65 H          10.8667   -2.3884   10.1804 H       1  UNL1        0.0000
     66 H          10.5794   -2.4210   12.6293 H       1  UNL1        0.0000
     67 H           8.5950   -1.3909   13.6555 H       1  UNL1        0.0000
     68 H           9.8643    2.3606   12.7020 H       1  UNL1        0.0000
     69 H          10.7358    3.4185   10.6577 H       1  UNL1        0.0000
     70 H           9.2279    3.8312    8.7422 H       1  UNL1        0.0000
     71 H           6.8574    3.1805    8.8892 H       1  UNL1        0.0000
     72 H           8.1027    1.1871   13.8508 H       1  UNL1        0.0000
     73 H           6.6373    2.1936   13.7202 H       1  UNL1        0.0000
@<TRIPOS>BOND
     1    43     6    1
     2    44     7    1
     3     6     7   ar
     4     6     5   ar
     5     7     8   ar
     6    42     5    1
     7     5     4   ar
     8    70    39    1
     9    64    31    1
    10    71    40    1
    11     8    45    1
    12     8     9   ar
    13     4     9   ar
    14     4     1    1
    15    39    40   ar
    16    39    38   ar
    17     9    46    1
    18    40    35   ar
    19    63    30    1
    20    31    30   ar
    21    31    32   ar
    22    65    32    1
    23     1    10    1
    24     1     3    1
    25     1    22    1
    26    30    29   ar
    27    10    11   ar
    28    10    15   ar
    29    47    11    1
    30    51    15    1
    31    32    33   ar
    32    11    12   ar
    33    69    38    1
    34    15    14   ar
    35    38    37   ar
    36    12    48    1
    37    12    13   ar
    38    35     3    1
    39    35    36   ar
    40    14    50    1
    41    14    13   ar
    42     3     2    1
    43     3    16    1
    44    13    49    1
    45    29     2    1
    46    29    34   ar
    47    37    36   ar
    48    37    68    1
    49    36    41    1
    50    33    34   ar
    51    33    66    1
    52    22    56    1
    53    22    57    1
    54    22    17    1
    55     2    41    1
    56     2    23    1
    57    16    17   ar
    58    16    21   ar
    59    34    67    1
    60    17    18   ar
    61    62    28    1
    62    55    21    1
    63    41    73    1
    64    41    72    1
    65    21    20   ar
    66    28    23   ar
    67    28    27   ar
    68    23    24   ar
    69    18    52    1
    70    18    19   ar
    71    20    19   ar
    72    20    54    1
    73    19    53    1
    74    61    27    1
    75    27    26   ar
    76    24    58    1
    77    24    25   ar
    78    26    25   ar
    79    26    60    1
    80    25    59    1
