@<TRIPOS>MOLECULE
4
 4 3 0 0 0
SMALL
GASTEIGER

@<TRIPOS>ATOM
      1 CL          7.9016    1.5428    5.4956 Cl      1  UNL1        0.0000
      2 CL         10.8353    2.3797    6.7153 Cl      1  UNL1        0.0000
      3 CL         10.5331   -0.2320    4.8600 Cl      1  UNL1        0.0000
      4 SI          9.8848    1.6559    5.0778 Si      1  UNL1        0.0000
@<TRIPOS>BOND
     1     3     4    1
     2     4     1    1
     3     4     2    1
