@<TRIPOS>MOLECULE
4
 4 3 0 0 0
SMALL
GASTEIGER

@<TRIPOS>ATOM
      1 CL          9.7446    2.3615    0.1508 Cl      1  UNL1        0.0000
      2 CL         12.7590    2.9514    1.2408 Cl      1  UNL1        0.0000
      3 CL         11.3525    0.1202    1.8335 Cl      1  UNL1        0.0000
      4 SI         10.9911    2.0954    1.7304 Si      1  UNL1        0.0000
@<TRIPOS>BOND
     1     1     4    1
     2     2     4    1
     3     4     3    1
