@<TRIPOS>MOLECULE
1
 24 25 0 0 0
SMALL
GASTEIGER

@<TRIPOS>ATOM
      1 SI         13.1790    8.7544   10.0350 Si      1  UNL1        0.0000
      2 C          12.6127    6.9684   10.4231 C.ar    1  UNL1        0.0000
      3 C          13.3199    9.6667   11.7114 C.ar    1  UNL1        0.0000
      4 C          11.3334    6.7117   10.9021 C.ar    1  UNL1        0.0000
      5 H          10.6491    7.5340   11.0380 H       1  UNL1        0.0000
      6 C          14.5596    9.9947   12.2474 C.ar    1  UNL1        0.0000
      7 H          15.4584    9.7190   11.7128 H       1  UNL1        0.0000
      8 C          12.1878   10.0129   12.4396 C.ar    1  UNL1        0.0000
      9 H          11.2141    9.7768   12.0406 H       1  UNL1        0.0000
     10 C          10.9215    5.4265   11.1973 C.ar    1  UNL1        0.0000
     11 H           9.9244    5.2561   11.5774 H       1  UNL1        0.0000
     12 C          13.4673    5.8869   10.2478 C.ar    1  UNL1        0.0000
     13 H          14.4752    6.0586    9.8952 H       1  UNL1        0.0000
     14 C          11.7821    4.3594   11.0046 C.ar    1  UNL1        0.0000
     15 H          11.4610    3.3517   11.2278 H       1  UNL1        0.0000
     16 C          13.0597    4.5943   10.5281 C.ar    1  UNL1        0.0000
     17 H          13.7417    3.7679   10.3788 H       1  UNL1        0.0000
     18 C          14.6687   10.6568   13.4577 C.ar    1  UNL1        0.0000
     19 H          15.6447   10.9067   13.8516 H       1  UNL1        0.0000
     20 C          12.2868   10.6622   13.6553 C.ar    1  UNL1        0.0000
     21 H          11.3910   10.9136   14.2046 H       1  UNL1        0.0000
     22 C          13.5293   10.9947   14.1666 C.ar    1  UNL1        0.0000
     23 H          13.6104   11.5115   15.1127 H       1  UNL1        0.0000
     24 H          14.6181    8.5935    9.5817 H       1  UNL1        0.0000
@<TRIPOS>BOND
     1    24     1    1
     2    13    12    1
     3     1     2    1
     4     1     3    1
     5    12     2   ar
     6    12    16   ar
     7    17    16    1
     8     2     4   ar
     9    16    14   ar
    10     4     5    1
    11     4    10   ar
    12    14    10   ar
    13    14    15    1
    14    10    11    1
    15     3     6   ar
    16     3     8   ar
    17     7     6    1
    18     9     8    1
    19     6    18   ar
    20     8    20   ar
    21    18    19    1
    22    18    22   ar
    23    20    22   ar
    24    20    21    1
    25    22    23    1
