@<TRIPOS>MOLECULE
1
 43 45 0 0 0
SMALL
GASTEIGER

@<TRIPOS>ATOM
      1 SI          4.1284    5.0750    4.2859 Si      1  UNL1        0.0000
      2 C           4.9863    6.0995    5.6601 C.ar    1  UNL1        0.0000
      3 C           6.3631    6.0099    5.8422 C.ar    1  UNL1        0.0000
      4 H           6.9306    5.3210    5.2344 H       1  UNL1        0.0000
      5 C           7.0200    6.7681    6.7939 C.ar    1  UNL1        0.0000
      6 H           8.0927    6.6801    6.9060 H       1  UNL1        0.0000
      7 C           6.3176    7.6395    7.6162 C.ar    1  UNL1        0.0000
      8 C           4.9405    7.7216    7.4566 C.ar    1  UNL1        0.0000
      9 H           4.3705    8.3864    8.0922 H       1  UNL1        0.0000
     10 C           4.2915    6.9675    6.4956 C.ar    1  UNL1        0.0000
     11 H           3.2197    7.0551    6.3939 H       1  UNL1        0.0000
     12 C           7.0257    8.4812    8.6352 C.3     1  UNL1        0.0000
     13 H           7.9492    8.0060    8.9590 H       1  UNL1        0.0000
     14 H           6.3931    8.6539    9.5037 H       1  UNL1        0.0000
     15 H           7.2782    9.4517    8.2058 H       1  UNL1        0.0000
     16 C           2.2942    5.6327    4.2770 C.ar    1  UNL1        0.0000
     17 C           1.2450    4.7268    4.3319 C.ar    1  UNL1        0.0000
     18 H           1.4701    3.6714    4.3893 H       1  UNL1        0.0000
     19 C          -0.0752    5.1396    4.2888 C.ar    1  UNL1        0.0000
     20 H          -0.8708    4.4066    4.3320 H       1  UNL1        0.0000
     21 C          -0.3911    6.4861    4.1823 C.ar    1  UNL1        0.0000
     22 C           0.6532    7.4009    4.1035 C.ar    1  UNL1        0.0000
     23 H           0.4274    8.4541    4.0021 H       1  UNL1        0.0000
     24 C           1.9680    6.9796    4.1450 C.ar    1  UNL1        0.0000
     25 H           2.7632    7.7064    4.0607 H       1  UNL1        0.0000
     26 C          -1.8156    6.9541    4.1526 C.3     1  UNL1        0.0000
     27 H          -2.4983    6.1178    4.0210 H       1  UNL1        0.0000
     28 H          -1.9691    7.6634    3.3409 H       1  UNL1        0.0000
     29 H          -2.0662    7.4584    5.0866 H       1  UNL1        0.0000
     30 C           4.7123    5.9428    2.6745 C.ar    1  UNL1        0.0000
     31 C           3.9213    5.8783    1.5313 C.ar    1  UNL1        0.0000
     32 H           2.9699    5.3699    1.5742 H       1  UNL1        0.0000
     33 C           4.3188    6.4593    0.3416 C.ar    1  UNL1        0.0000
     34 H           3.6793    6.3891   -0.5284 H       1  UNL1        0.0000
     35 C           5.5280    7.1338    0.2496 C.ar    1  UNL1        0.0000
     36 C           6.3193    7.2151    1.3883 C.ar    1  UNL1        0.0000
     37 H           7.2620    7.7443    1.3424 H       1  UNL1        0.0000
     38 C           5.9164    6.6316    2.5742 C.ar    1  UNL1        0.0000
     39 H           6.5491    6.7243    3.4435 H       1  UNL1        0.0000
     40 C           5.9790    7.7612   -1.0364 C.3     1  UNL1        0.0000
     41 H           6.2374    8.8081   -0.8818 H       1  UNL1        0.0000
     42 H           5.1997    7.7020   -1.7926 H       1  UNL1        0.0000
     43 H           6.8661    7.2523   -1.4141 H       1  UNL1        0.0000
@<TRIPOS>BOND
     1    42    40    1
     2    43    40    1
     3    40    41    1
     4    40    35    1
     5    34    33    1
     6    35    33   ar
     7    35    36   ar
     8    33    31   ar
     9    37    36    1
    10    36    38   ar
    11    31    32    1
    12    31    30   ar
    13    38    30   ar
    14    38    39    1
    15    30     1    1
    16    28    26    1
    17    23    22    1
    18    27    26    1
    19    25    24    1
    20    22    24   ar
    21    22    21   ar
    22    24    16   ar
    23    26    21    1
    24    26    29    1
    25    21    19   ar
    26    16     1    1
    27    16    17   ar
    28     1     2    1
    29    19    17   ar
    30    19    20    1
    31    17    18    1
    32     4     3    1
    33     2     3   ar
    34     2    10   ar
    35     3     5   ar
    36    11    10    1
    37    10     8   ar
    38     5     6    1
    39     5     7   ar
    40     8     7   ar
    41     8     9    1
    42     7    12    1
    43    15    12    1
    44    12    13    1
    45    12    14    1
