@<TRIPOS>MOLECULE
1
 20 20 0 0 0
SMALL
GASTEIGER

@<TRIPOS>ATOM
      1 SI         -2.0110    3.5399    5.5423 Si      1  UNL1        0.0000
      2 C          -1.4975    5.3101    6.1278 C.3     1  UNL1        0.0000
      3 H          -2.3396    5.9890    6.0388 H       1  UNL1        0.0000
      4 H          -0.6875    5.7063    5.5253 H       1  UNL1        0.0000
      5 H          -1.1799    5.3294    7.1648 H       1  UNL1        0.0000
      6 C          -3.2467    2.9356    6.9036 C.3     1  UNL1        0.0000
      7 H          -2.9255    3.2105    7.9015 H       1  UNL1        0.0000
      8 H          -3.3706    1.8578    6.8780 H       1  UNL1        0.0000
      9 H          -4.2234    3.3816    6.7453 H       1  UNL1        0.0000
     10 C          -3.1843    3.9346    4.0741 C.ar    1  UNL1        0.0000
     11 C          -4.2853    3.1311    3.7921 C.ar    1  UNL1        0.0000
     12 H          -4.4979    2.2842    4.4262 H       1  UNL1        0.0000
     13 C          -5.1150    3.3885    2.7158 C.ar    1  UNL1        0.0000
     14 H          -5.9622    2.7449    2.5203 H       1  UNL1        0.0000
     15 C          -4.8629    4.4687    1.8879 C.ar    1  UNL1        0.0000
     16 H          -5.5095    4.6742    1.0457 H       1  UNL1        0.0000
     17 C          -3.7777    5.2859    2.1524 C.ar    1  UNL1        0.0000
     18 H          -3.5747    6.1364    1.5156 H       1  UNL1        0.0000
     19 C          -2.9548    5.0182    3.2314 C.ar    1  UNL1        0.0000
     20 H          -2.1160    5.6693    3.4241 H       1  UNL1        0.0000
@<TRIPOS>BOND
     1    16    15    1
     2    18    17    1
     3    15    17   ar
     4    15    13   ar
     5    17    19   ar
     6    14    13    1
     7    13    11   ar
     8    19    20    1
     9    19    10   ar
    10    11    10   ar
    11    11    12    1
    12    10     1    1
    13     4     2    1
    14     1     2    1
    15     1     6    1
    16     3     2    1
    17     2     5    1
    18     9     6    1
    19     8     6    1
    20     6     7    1
