@<TRIPOS>MOLECULE
4
 4 3 0 0 0
SMALL
GASTEIGER

@<TRIPOS>ATOM
      1 CL          0.5560   11.1547    1.3341 Cl      1  UNL1        0.0000
      2 CL          0.8205    9.2717    3.9741 Cl      1  UNL1        0.0000
      3 CL          0.5231    7.9512    1.0180 Cl      1  UNL1        0.0000
      4 SI          1.4690    9.4594    2.0297 Si      1  UNL1        0.0000
@<TRIPOS>BOND
     1     3     4    1
     2     1     4    1
     3     4     2    1
