@<TRIPOS>MOLECULE
1
 46 47 0 0 0
SMALL
GASTEIGER

@<TRIPOS>ATOM
      1 SI         10.0495   10.9671   25.1297 Si      1  UNL1        0.0000
      2 H          10.8083   12.1263   24.5642 H       1  UNL1        0.0000
      3 C           8.7759   11.8494   26.3237 C.3     1  UNL1        0.0000
      4 H           9.2234   11.7617   27.3130 H       1  UNL1        0.0000
      5 C           8.5631   13.2730   25.9501 C.2     1  UNL1        0.0000
      6 C           7.2599   13.4615   25.6421 C.2     1  UNL1        0.0000
      7 C           6.5378   12.2195   25.8582 C.2     1  UNL1        0.0000
      8 C           7.4031   11.2772   26.2953 C.2     1  UNL1        0.0000
      9 C           9.6563   14.2874   25.9644 C.3     1  UNL1        0.0000
     10 H          10.0069   14.5144   24.9557 H       1  UNL1        0.0000
     11 H          10.4965   13.9128   26.5411 H       1  UNL1        0.0000
     12 H           9.3103   15.2180   26.4131 H       1  UNL1        0.0000
     13 C           6.5994   14.7173   25.1749 C.3     1  UNL1        0.0000
     14 H           5.8230   15.0258   25.8754 H       1  UNL1        0.0000
     15 H           6.1259   14.5619   24.2040 H       1  UNL1        0.0000
     16 H           7.3224   15.5237   25.0805 H       1  UNL1        0.0000
     17 C           5.0657   12.0999   25.6326 C.3     1  UNL1        0.0000
     18 H           4.5222   12.7903   26.2784 H       1  UNL1        0.0000
     19 H           4.7176   11.0905   25.8374 H       1  UNL1        0.0000
     20 H           4.8169   12.3492   24.5998 H       1  UNL1        0.0000
     21 C           7.1092    9.8899   26.7517 C.3     1  UNL1        0.0000
     22 H           7.7483    9.6393   27.5943 H       1  UNL1        0.0000
     23 H           7.3020    9.1662   25.9595 H       1  UNL1        0.0000
     24 H           6.0706    9.7926   27.0610 H       1  UNL1        0.0000
     25 C          11.3897   10.2798   26.4029 C.3     1  UNL1        0.0000
     26 H          12.1483    9.7444   25.8419 H       1  UNL1        0.0000
     27 C          11.9166   11.4430   27.1561 C.2     1  UNL1        0.0000
     28 C          11.4040   11.4170   28.4090 C.2     1  UNL1        0.0000
     29 C          10.6365   10.1950   28.5799 C.2     1  UNL1        0.0000
     30 C          10.6861    9.4777   27.4325 C.2     1  UNL1        0.0000
     31 C          12.9132   12.3913   26.5810 C.3     1  UNL1        0.0000
     32 H          12.6616   12.6527   25.5553 H       1  UNL1        0.0000
     33 H          13.9027   11.9281   26.5725 H       1  UNL1        0.0000
     34 H          12.9795   13.3055   27.1668 H       1  UNL1        0.0000
     35 C          11.5843   12.4092   29.5100 C.3     1  UNL1        0.0000
     36 H          12.1166   11.9586   30.3482 H       1  UNL1        0.0000
     37 H          10.6154   12.7501   29.8762 H       1  UNL1        0.0000
     38 H          12.1485   13.2751   29.1730 H       1  UNL1        0.0000
     39 C           9.9695    9.8491   29.8706 C.3     1  UNL1        0.0000
     40 H           9.2441   10.6171   30.1423 H       1  UNL1        0.0000
     41 H          10.7034    9.7872   30.6745 H       1  UNL1        0.0000
     42 H           9.4520    8.8953   29.8065 H       1  UNL1        0.0000
     43 C          10.1738    8.1015   27.1738 C.3     1  UNL1        0.0000
     44 H          11.0093    7.4018   27.0927 H       1  UNL1        0.0000
     45 H           9.6078    8.0622   26.2450 H       1  UNL1        0.0000
     46 H           9.5362    7.7587   27.9848 H       1  UNL1        0.0000
@<TRIPOS>BOND
     1    15    13    1
     2     2     1    1
     3    20    17    1
     4    10     9    1
     5    16    13    1
     6     1     3    1
     7     1    25    1
     8    13     6    1
     9    13    14    1
    10    32    31    1
    11    17    19    1
    12    17     7    1
    13    17    18    1
    14     6     7    1
    15     6     5    2
    16    26    25    1
    17     7     8    2
    18     5     9    1
    19     5     3    1
    20    23    21    1
    21     9    12    1
    22     9    11    1
    23    45    43    1
    24     8     3    1
    25     8    21    1
    26     3     4    1
    27    25    27    1
    28    25    30    1
    29    33    31    1
    30    31    27    1
    31    31    34    1
    32    21    24    1
    33    21    22    1
    34    44    43    1
    35    27    28    2
    36    43    30    1
    37    43    46    1
    38    30    29    2
    39    28    29    1
    40    28    35    1
    41    29    39    1
    42    38    35    1
    43    35    37    1
    44    35    36    1
    45    42    39    1
    46    39    40    1
    47    39    41    1
