@<TRIPOS>MOLECULE
1
 25 25 0 0 0
SMALL
GASTEIGER

@<TRIPOS>ATOM
      1 SI          1.3461   -2.1003    1.3956 Si      1  UNL1        0.0000
      2 H          -0.1164   -2.3704    1.3183 H       1  UNL1        0.0000
      3 H           1.6501   -2.1781   -0.0601 H       1  UNL1        0.0000
      4 C           2.0974   -3.8036    1.9570 C.3     1  UNL1        0.0000
      5 H           1.8873   -4.4963    1.1460 H       1  UNL1        0.0000
      6 C           1.5551   -4.2449    3.2609 C.2     1  UNL1        0.0000
      7 C           2.5299   -4.1516    4.1959 C.2     1  UNL1        0.0000
      8 C           3.7617   -3.7364    3.5522 C.2     1  UNL1        0.0000
      9 C           3.5385   -3.5921    2.2261 C.2     1  UNL1        0.0000
     10 C           0.1634   -4.7627    3.4152 C.3     1  UNL1        0.0000
     11 H          -0.5150   -4.2541    2.7325 H       1  UNL1        0.0000
     12 H          -0.2030   -4.6454    4.4349 H       1  UNL1        0.0000
     13 H           0.1323   -5.8283    3.1782 H       1  UNL1        0.0000
     14 C           2.4352   -4.4669    5.6544 C.3     1  UNL1        0.0000
     15 H           2.9933   -3.7419    6.2457 H       1  UNL1        0.0000
     16 H           2.8538   -5.4537    5.8587 H       1  UNL1        0.0000
     17 H           1.4003   -4.4657    5.9907 H       1  UNL1        0.0000
     18 C           5.0474   -3.5445    4.2876 C.3     1  UNL1        0.0000
     19 H           5.2411   -4.3847    4.9540 H       1  UNL1        0.0000
     20 H           5.0127   -2.6355    4.8906 H       1  UNL1        0.0000
     21 H           5.8767   -3.4511    3.5914 H       1  UNL1        0.0000
     22 C           4.5069   -3.2122    1.1585 C.3     1  UNL1        0.0000
     23 H           4.1309   -3.5164    0.1842 H       1  UNL1        0.0000
     24 H           5.4732   -3.6870    1.3226 H       1  UNL1        0.0000
     25 H           4.6583   -2.1313    1.1452 H       1  UNL1        0.0000
@<TRIPOS>BOND
     1     3     1    1
     2    23    22    1
     3    25    22    1
     4     5     4    1
     5    22    24    1
     6    22     9    1
     7     2     1    1
     8     1     4    1
     9     4     9    1
    10     4     6    1
    11     9     8    2
    12    11    10    1
    13    13    10    1
    14     6    10    1
    15     6     7    2
    16    10    12    1
    17     8     7    1
    18     8    18    1
    19    21    18    1
    20     7    14    1
    21    18    20    1
    22    18    19    1
    23    14    16    1
    24    14    17    1
    25    14    15    1
