@<TRIPOS>MOLECULE
1
 34 36 0 0 0
SMALL
GASTEIGER

@<TRIPOS>ATOM
      1 SI          1.8829    3.6603   -0.0094 Si      1  UNL1        0.0000
      2 C           0.0608    3.6603    0.5974 C.ar    1  UNL1        0.0000
      3 C          -0.6217    4.8494    0.8303 C.ar    1  UNL1        0.0000
      4 C          -1.9411    4.8558    1.2508 C.ar    1  UNL1        0.0000
      5 C          -2.6079    3.6603    1.4589 C.ar    1  UNL1        0.0000
      6 C           1.9564    5.0387   -1.3624 C.ar    1  UNL1        0.0000
      7 C           0.8156    5.5500   -1.9705 C.ar    1  UNL1        0.0000
      8 C           0.9018    6.4577   -3.0121 C.ar    1  UNL1        0.0000
      9 C           2.1383    6.8635   -3.4828 C.ar    1  UNL1        0.0000
     10 C           3.2866    6.3382   -2.9145 C.ar    1  UNL1        0.0000
     11 C           3.1880    5.4345   -1.8729 C.ar    1  UNL1        0.0000
     12 H          -0.1113    5.7886    0.6704 H       1  UNL1        0.0000
     13 H          -2.4517    5.7949    1.4158 H       1  UNL1        0.0000
     14 H          -3.6391    3.6603    1.7819 H       1  UNL1        0.0000
     15 H          -0.1586    5.2294   -1.6327 H       1  UNL1        0.0000
     16 H          -0.0011    6.8457   -3.4633 H       1  UNL1        0.0000
     17 H           2.2071    7.5737   -4.2946 H       1  UNL1        0.0000
     18 H           4.2581    6.6314   -3.2888 H       1  UNL1        0.0000
     19 H           4.0860    5.0144   -1.4438 H       1  UNL1        0.0000
     20 C          -1.9411    2.4647    1.2508 C.ar    1  UNL1        0.0000
     21 C          -0.6217    2.4711    0.8303 C.ar    1  UNL1        0.0000
     22 H          -0.1113    1.5318    0.6704 H       1  UNL1        0.0000
     23 H          -2.4517    1.5257    1.4158 H       1  UNL1        0.0000
     24 C           1.9564    2.2818   -1.3624 C.ar    1  UNL1        0.0000
     25 C           0.8156    1.7705   -1.9705 C.ar    1  UNL1        0.0000
     26 C           0.9018    0.8628   -3.0121 C.ar    1  UNL1        0.0000
     27 C           2.1383    0.4570   -3.4828 C.ar    1  UNL1        0.0000
     28 C           3.2866    0.9823   -2.9145 C.ar    1  UNL1        0.0000
     29 C           3.1879    1.8860   -1.8729 C.ar    1  UNL1        0.0000
     30 H           4.0860    2.3061   -1.4438 H       1  UNL1        0.0000
     31 H           4.2580    0.6891   -3.2888 H       1  UNL1        0.0000
     32 H           2.2071   -0.2532   -4.2946 H       1  UNL1        0.0000
     33 H          -0.0011    0.4748   -3.4633 H       1  UNL1        0.0000
     34 H          -0.1586    2.0911   -1.6327 H       1  UNL1        0.0000
@<TRIPOS>BOND
     1    32    27    1
     2    17     9    1
     3     9     8   ar
     4     9    10   ar
     5    27    26   ar
     6    27    28   ar
     7    16     8    1
     8    33    26    1
     9    31    28    1
    10    18    10    1
    11    26    25   ar
    12     8     7   ar
    13    28    29   ar
    14    10    11   ar
    15     7    15    1
    16     7     6   ar
    17    25    34    1
    18    25    24   ar
    19    29    30    1
    20    29    24   ar
    21    11    19    1
    22    11     6   ar
    23    24     1    1
    24     6     1    1
    25     1     2    1
    26     2     3   ar
    27     2    21   ar
    28    12     3    1
    29    22    21    1
    30     3     4   ar
    31    21    20   ar
    32     4    13    1
    33     4     5   ar
    34    20    23    1
    35    20     5   ar
    36     5    14    1
