@<TRIPOS>MOLECULE
1
 9 8 0 0 0
SMALL
GASTEIGER

@<TRIPOS>ATOM
      1 SI          6.6107    7.0779   10.7500 Si      1  UNL1        0.0000
      2 H           6.9757    5.8707   11.5457 H       1  UNL1        0.0000
      3 H           5.3773    6.5746   10.0889 H       1  UNL1        0.0000
      4 SI          5.8762    8.7271   12.2105 Si      1  UNL1        0.0000
      5 H           6.5273   10.0281   12.0074 H       1  UNL1        0.0000
      6 H           4.4420    8.9903   12.1123 H       1  UNL1        0.0000
      7 H           6.1157    8.4024   13.6201 H       1  UNL1        0.0000
      8 O           7.3495    5.6688    7.5851 O.3     1  UNL1        0.0000
      9 C           7.7525    6.4107    8.3662 C.3     1  UNL1        0.0000
@<TRIPOS>BOND
     1     8     9    1
     2     3     1    1
     3     1     2    1
     4     1     4    1
     5     5     4    1
     6     6     4    1
     7     4     7    1
     8     1     9    0
