@<TRIPOS>MOLECULE
1
 22 22 0 0 0
SMALL
GASTEIGER

@<TRIPOS>ATOM
      1 SI          7.1220    4.0938    8.0023 Si      1  UNL1        0.0000
      2 C           7.0842    4.3289    9.9100 C.3     1  UNL1        0.0000
      3 H           8.0167    4.0254   10.3719 H       1  UNL1        0.0000
      4 H           6.2852    3.7468   10.3575 H       1  UNL1        0.0000
      5 H           6.9163    5.3713   10.1584 H       1  UNL1        0.0000
      6 C           5.6035    5.0183    7.2816 C.3     1  UNL1        0.0000
      7 H           5.6029    6.0581    7.5907 H       1  UNL1        0.0000
      8 H           4.6757    4.5687    7.6193 H       1  UNL1        0.0000
      9 H           5.6076    4.9945    6.1977 H       1  UNL1        0.0000
     10 C           8.6104    5.0205    7.3677 C.1     1  UNL1        0.0000
     11 C           9.6124    5.5614    6.9565 C.1     1  UNL1        0.0000
     12 C          10.7823    6.2008    6.4823 C.ar    1  UNL1        0.0000
     13 C          11.9117    5.4450    6.1639 C.ar    1  UNL1        0.0000
     14 H          11.8831    4.3715    6.2842 H       1  UNL1        0.0000
     15 C          13.0537    6.0694    5.7009 C.ar    1  UNL1        0.0000
     16 H          13.9256    5.4806    5.4545 H       1  UNL1        0.0000
     17 C          13.0841    7.4471    5.5530 C.ar    1  UNL1        0.0000
     18 H          13.9788    7.9316    5.1907 H       1  UNL1        0.0000
     19 C          11.9660    8.2026    5.8702 C.ar    1  UNL1        0.0000
     20 H          11.9907    9.2765    5.7546 H       1  UNL1        0.0000
     21 C          10.8185    7.5879    6.3321 C.ar    1  UNL1        0.0000
     22 H           9.9422    8.1687    6.5801 H       1  UNL1        0.0000
@<TRIPOS>BOND
     1    18    17    1
     2    16    15    1
     3    17    15   ar
     4    17    19   ar
     5    15    13   ar
     6    20    19    1
     7    19    21   ar
     8    13    14    1
     9    13    12   ar
    10     9     6    1
    11    21    12   ar
    12    21    22    1
    13    12    11    1
    14    11    10    3
    15     6     7    1
    16     6     8    1
    17     6     1    1
    18    10     1    1
    19     1     2    1
    20     2     5    1
    21     2     4    1
    22     2     3    1
