@<TRIPOS>MOLECULE
2
 10 9 0 0 0
SMALL
GASTEIGER

@<TRIPOS>ATOM
      1 CL          5.2197    9.5734    6.4660 Cl      1  UNL1        0.0000
      2 SI          6.8062    8.3153    5.8694 Si      1  UNL1        0.0000
      3 C           8.0593    8.6313    7.3126 C.3     1  UNL1        0.0000
      4 H           7.5646    8.4188    8.2559 H       1  UNL1        0.0000
      5 H           8.4052    9.6589    7.3556 H       1  UNL1        0.0000
      6 H           8.9203    7.9755    7.2340 H       1  UNL1        0.0000
      7 C           6.1110    6.5806    6.3577 C.3     1  UNL1        0.0000
      8 H           6.0427    6.5125    7.4395 H       1  UNL1        0.0000
      9 H           6.7616    5.7836    6.0148 H       1  UNL1        0.0000
     10 H           5.1161    6.4084    5.9615 H       1  UNL1        0.0000
@<TRIPOS>BOND
     1     2     7    1
     2     2     1    1
     3     2     3    1
     4    10     7    1
     5     9     7    1
     6     7     8    1
     7     6     3    1
     8     3     5    1
     9     3     4    1
