@<TRIPOS>MOLECULE
1
 14 14 0 0 0
SMALL
GASTEIGER

@<TRIPOS>ATOM
      1 SI         -4.1158    8.7898    5.2645 Si      1  UNL1        0.0000
      2 C          -4.0582    9.7335    6.9142 C.ar    1  UNL1        0.0000
      3 C          -4.8414    9.3245    7.9876 C.ar    1  UNL1        0.0000
      4 H          -5.4938    8.4705    7.8604 H       1  UNL1        0.0000
      5 C          -4.8039    9.9787    9.2062 C.ar    1  UNL1        0.0000
      6 H          -5.4274    9.6418   10.0242 H       1  UNL1        0.0000
      7 C          -3.9651   11.0674    9.3807 C.ar    1  UNL1        0.0000
      8 H          -3.9291   11.5811   10.3314 H       1  UNL1        0.0000
      9 C          -3.1809   11.4967    8.3238 C.ar    1  UNL1        0.0000
     10 H          -2.5306   12.3527    8.4474 H       1  UNL1        0.0000
     11 C          -3.2366   10.8361    7.1088 C.ar    1  UNL1        0.0000
     12 H          -2.6377   11.1948    6.2818 H       1  UNL1        0.0000
     13 H          -3.6015    9.8592    4.3560 H       1  UNL1        0.0000
     14 H          -5.5742    9.0127    4.9606 H       1  UNL1        0.0000
@<TRIPOS>BOND
     1    13     1    1
     2    14     1    1
     3     1     2    1
     4    12    11    1
     5     2    11   ar
     6     2     3   ar
     7    11     9   ar
     8     4     3    1
     9     3     5   ar
    10     9    10    1
    11     9     7   ar
    12     5     7   ar
    13     5     6    1
    14     7     8    1
