@<TRIPOS>MOLECULE
1
 24 25 0 0 0
SMALL
GASTEIGER

@<TRIPOS>ATOM
      1 SI          1.4381    0.8096   10.3762 Si      1  UNL1        0.0000
      2 C           2.5331   -0.6676   10.8710 C.ar    1  UNL1        0.0000
      3 C           2.6603   -1.0208   12.2116 C.ar    1  UNL1        0.0000
      4 C           3.4254   -2.1065   12.5965 C.ar    1  UNL1        0.0000
      5 C           4.0824   -2.8639   11.6405 C.ar    1  UNL1        0.0000
      6 C           3.9763   -2.5196   10.3035 C.ar    1  UNL1        0.0000
      7 C           3.2094   -1.4313    9.9267 C.ar    1  UNL1        0.0000
      8 C           2.1031    1.4761    8.7105 C.ar    1  UNL1        0.0000
      9 C           2.8548    2.6448    8.6798 C.ar    1  UNL1        0.0000
     10 C           3.3836    3.1326    7.4978 C.ar    1  UNL1        0.0000
     11 C           3.1713    2.4519    6.3114 C.ar    1  UNL1        0.0000
     12 C           2.4257    1.2852    6.3201 C.ar    1  UNL1        0.0000
     13 C           1.8986    0.8099    7.5073 C.ar    1  UNL1        0.0000
     14 H           1.8805    1.8789   11.3206 H       1  UNL1        0.0000
     15 H           2.1457   -0.4353   12.9600 H       1  UNL1        0.0000
     16 H           3.5091   -2.3665   13.6429 H       1  UNL1        0.0000
     17 H           4.6772   -3.7163   11.9371 H       1  UNL1        0.0000
     18 H           4.4940   -3.1021    9.5537 H       1  UNL1        0.0000
     19 H           3.1408   -1.1607    8.8830 H       1  UNL1        0.0000
     20 H           3.0296    3.1797    9.6015 H       1  UNL1        0.0000
     21 H           3.9642    4.0444    7.5002 H       1  UNL1        0.0000
     22 H           3.5832    2.8278    5.3857 H       1  UNL1        0.0000
     23 H           2.2554    0.7470    5.3979 H       1  UNL1        0.0000
     24 H           1.3075   -0.0952    7.4988 H       1  UNL1        0.0000
@<TRIPOS>BOND
     1    22    11    1
     2    23    12    1
     3    11    12   ar
     4    11    10   ar
     5    12    13   ar
     6    10    21    1
     7    10     9   ar
     8    24    13    1
     9    13     8   ar
    10     9     8   ar
    11     9    20    1
    12     8     1    1
    13    19     7    1
    14    18     6    1
    15     7     6   ar
    16     7     2   ar
    17     6     5   ar
    18     1     2    1
    19     1    14    1
    20     2     3   ar
    21     5    17    1
    22     5     4   ar
    23     3     4   ar
    24     3    15    1
    25     4    16    1
