@<TRIPOS>MOLECULE
1
 24 25 0 0 0
SMALL
GASTEIGER

@<TRIPOS>ATOM
      1 SI          0.3215   -0.0489    2.6153 Si      1  UNL1        0.0000
      2 C           1.3945   -1.6145    2.7933 C.ar    1  UNL1        0.0000
      3 C           1.0072   -2.6757    3.6047 C.ar    1  UNL1        0.0000
      4 C           1.8078   -3.7926    3.7603 C.ar    1  UNL1        0.0000
      5 C           3.0212   -3.8735    3.0990 C.ar    1  UNL1        0.0000
      6 C           3.4195   -2.8329    2.2774 C.ar    1  UNL1        0.0000
      7 C           2.6117   -1.7204    2.1287 C.ar    1  UNL1        0.0000
      8 C          -1.4506   -0.7574    2.6189 C.ar    1  UNL1        0.0000
      9 C          -2.1096   -1.0642    3.8043 C.ar    1  UNL1        0.0000
     10 C          -3.3703   -1.6356    3.8022 C.ar    1  UNL1        0.0000
     11 C          -4.0058   -1.9062    2.6024 C.ar    1  UNL1        0.0000
     12 C          -3.3680   -1.6052    1.4108 C.ar    1  UNL1        0.0000
     13 C          -2.1045   -1.0413    1.4252 C.ar    1  UNL1        0.0000
     14 H           0.5425    0.3129    1.1781 H       1  UNL1        0.0000
     15 H           0.0587   -2.6310    4.1193 H       1  UNL1        0.0000
     16 H           1.4854   -4.6033    4.3989 H       1  UNL1        0.0000
     17 H           3.6502   -4.7445    3.2189 H       1  UNL1        0.0000
     18 H           4.3620   -2.8909    1.7507 H       1  UNL1        0.0000
     19 H           2.9300   -0.9167    1.4817 H       1  UNL1        0.0000
     20 H          -1.6289   -0.8459    4.7474 H       1  UNL1        0.0000
     21 H          -3.8606   -1.8683    4.7375 H       1  UNL1        0.0000
     22 H          -4.9914   -2.3497    2.5961 H       1  UNL1        0.0000
     23 H          -3.8565   -1.8147    0.4693 H       1  UNL1        0.0000
     24 H          -1.6104   -0.8173    0.4909 H       1  UNL1        0.0000
@<TRIPOS>BOND
     1    23    12    1
     2    24    13    1
     3    14     1    1
     4    12    13   ar
     5    12    11   ar
     6    13     8   ar
     7    19     7    1
     8    18     6    1
     9     7     6   ar
    10     7     2   ar
    11     6     5   ar
    12    22    11    1
    13    11    10   ar
    14     1     8    1
    15     1     2    1
    16     8     9   ar
    17     2     3   ar
    18     5    17    1
    19     5     4   ar
    20     3     4   ar
    21     3    15    1
    22     4    16    1
    23    10     9   ar
    24    10    21    1
    25     9    20    1
