@<TRIPOS>MOLECULE
1
 34 36 0 0 0
SMALL
GASTEIGER

@<TRIPOS>ATOM
      1 SI          3.0421    3.0479    2.4806 Si      1  UNL1        0.0000
      2 C           1.1728    2.7894    2.1393 C.ar    1  UNL1        0.0000
      3 C           0.2447    3.7998    2.3666 C.ar    1  UNL1        0.0000
      4 H           0.5768    4.7368    2.7898 H       1  UNL1        0.0000
      5 C          -1.0953    3.6245    2.0700 C.ar    1  UNL1        0.0000
      6 H          -1.7974    4.4254    2.2548 H       1  UNL1        0.0000
      7 C          -1.5369    2.4253    1.5383 C.ar    1  UNL1        0.0000
      8 H          -2.5827    2.2855    1.3045 H       1  UNL1        0.0000
      9 C          -0.6294    1.4039    1.3121 C.ar    1  UNL1        0.0000
     10 H          -0.9661    0.4617    0.9029 H       1  UNL1        0.0000
     11 C           0.7084    1.5887    1.6088 C.ar    1  UNL1        0.0000
     12 H           1.4061    0.7817    1.4361 H       1  UNL1        0.0000
     13 C           3.6028    1.4970    3.4482 C.ar    1  UNL1        0.0000
     14 C           2.6785    0.7180    4.1372 C.ar    1  UNL1        0.0000
     15 H           1.6314    0.9800    4.0948 H       1  UNL1        0.0000
     16 C           3.0778   -0.3807    4.8772 C.ar    1  UNL1        0.0000
     17 H           2.3417   -0.9732    5.4021 H       1  UNL1        0.0000
     18 C           4.4184   -0.7192    4.9486 C.ar    1  UNL1        0.0000
     19 H           4.7332   -1.5771    5.5257 H       1  UNL1        0.0000
     20 C           5.3532    0.0516    4.2785 C.ar    1  UNL1        0.0000
     21 H           6.4027   -0.2019    4.3345 H       1  UNL1        0.0000
     22 C           4.9447    1.1462    3.5384 C.ar    1  UNL1        0.0000
     23 H           5.6798    1.7437    3.0187 H       1  UNL1        0.0000
     24 C           3.0962    4.4551    3.7803 C.ar    1  UNL1        0.0000
     25 C           3.2996    4.1885    5.1296 C.ar    1  UNL1        0.0000
     26 H           3.4449    3.1665    5.4475 H       1  UNL1        0.0000
     27 C           3.3220    5.2068    6.0663 C.ar    1  UNL1        0.0000
     28 H           3.4847    4.9756    7.1095 H       1  UNL1        0.0000
     29 C           3.1365    6.5197    5.6694 C.ar    1  UNL1        0.0000
     30 H           3.1530    7.3173    6.3983 H       1  UNL1        0.0000
     31 C           2.9327    6.8056    4.3299 C.ar    1  UNL1        0.0000
     32 H           2.7890    7.8285    4.0102 H       1  UNL1        0.0000
     33 C           2.9169    5.7819    3.4009 C.ar    1  UNL1        0.0000
     34 H           2.7660    6.0188    2.3554 H       1  UNL1        0.0000
@<TRIPOS>BOND
     1    10     9    1
     2     8     7    1
     3     9     7   ar
     4     9    11   ar
     5    12    11    1
     6     7     5   ar
     7    11     2   ar
     8     5     6    1
     9     5     3   ar
    10     2     3   ar
    11     2     1    1
    12    34    33    1
    13     3     4    1
    14     1    13    1
    15     1    24    1
    16    23    22    1
    17    33    24   ar
    18    33    31   ar
    19    13    22   ar
    20    13    14   ar
    21    22    20   ar
    22    24    25   ar
    23    32    31    1
    24    15    14    1
    25    14    16   ar
    26    20    21    1
    27    20    18   ar
    28    31    29   ar
    29    16    18   ar
    30    16    17    1
    31    18    19    1
    32    25    26    1
    33    25    27   ar
    34    29    27   ar
    35    29    30    1
    36    27    28    1
