@<TRIPOS>MOLECULE
1
 29 28 0 0 0
SMALL
GASTEIGER

@<TRIPOS>ATOM
      1 SI          3.3076   -0.9331    5.7553 Si      1  UNL1        0.0000
      2 N           1.7614   -2.1559    7.0252 N.4     1  UNL1        0.0000
      3 H           1.0811   -1.4363    7.2527 H       1  UNL1        0.0000
      4 N           4.3567   -2.2719    5.4341 N.3     1  UNL1        0.0000
      5 N           4.0421   -0.2468    7.1954 N.3     1  UNL1        0.0000
      6 C           2.2629   -2.7484    8.2539 C.3     1  UNL1        0.0000
      7 H           2.8063   -1.9968    8.8195 H       1  UNL1        0.0000
      8 H           2.9433   -3.5578    8.0012 H       1  UNL1        0.0000
      9 H           1.4542   -3.1519    8.8730 H       1  UNL1        0.0000
     10 C           1.1280   -3.1364    6.1610 C.3     1  UNL1        0.0000
     11 H           0.7147   -2.6312    5.2911 H       1  UNL1        0.0000
     12 H           0.3291   -3.6815    6.6740 H       1  UNL1        0.0000
     13 H           1.8805   -3.8466    5.8243 H       1  UNL1        0.0000
     14 C           5.1922   -2.9630    6.3920 C.3     1  UNL1        0.0000
     15 H           5.0753   -2.5207    7.3748 H       1  UNL1        0.0000
     16 H           6.2449   -2.9039    6.0961 H       1  UNL1        0.0000
     17 H           4.9203   -4.0234    6.4351 H       1  UNL1        0.0000
     18 C           4.4970   -2.8380    4.1146 C.3     1  UNL1        0.0000
     19 H           3.9122   -2.2682    3.3998 H       1  UNL1        0.0000
     20 H           4.1612   -3.8803    4.0969 H       1  UNL1        0.0000
     21 H           5.5455   -2.8156    3.8017 H       1  UNL1        0.0000
     22 C           3.2700    0.6494    8.0274 C.3     1  UNL1        0.0000
     23 H           2.2433    0.3074    8.1073 H       1  UNL1        0.0000
     24 H           3.2570    1.6696    7.6243 H       1  UNL1        0.0000
     25 H           3.7079    0.6856    9.0284 H       1  UNL1        0.0000
     26 C           5.4200    0.2039    7.1324 C.3     1  UNL1        0.0000
     27 H           5.9849   -0.4137    6.4431 H       1  UNL1        0.0000
     28 H           5.8723    0.1411    8.1255 H       1  UNL1        0.0000
     29 H           5.4823    1.2434    6.7923 H       1  UNL1        0.0000
@<TRIPOS>BOND
     1    19    18    1
     2    21    18    1
     3    20    18    1
     4    18     4    1
     5    11    10    1
     6     4     1    1
     7     4    14    1
     8     1     5    1
     9    13    10    1
    10    16    14    1
    11    10    12    1
    12    10     2    1
    13    14    17    1
    14    14    15    1
    15    27    26    1
    16    29    26    1
    17     2     3    1
    18     2     6    1
    19    26     5    1
    20    26    28    1
    21     5    22    1
    22    24    22    1
    23     8     6    1
    24    22    23    1
    25    22    25    1
    26     6     7    1
    27     6     9    1
    28     1     2    0
