@<TRIPOS>MOLECULE
1
 42 42 0 0 0
SMALL
GASTEIGER

@<TRIPOS>ATOM
      1 SI         11.3080   10.8196    1.0568 Si      1  UNL1        0.0000
      2 SI         11.5741   11.7232   -1.1816 Si      1  UNL1        0.0000
      3 SI          9.3257   11.8510    2.0326 Si      1  UNL1        0.0000
      4 N          12.6715   11.4415    2.0045 N.3     1  UNL1        0.0000
      5 C          10.6452   10.4847   -2.3180 C.3     1  UNL1        0.0000
      6 H          10.8276   10.6999   -3.3669 H       1  UNL1        0.0000
      7 H           9.5715   10.5430   -2.1693 H       1  UNL1        0.0000
      8 H          10.9500    9.4547   -2.1403 H       1  UNL1        0.0000
      9 C          13.3098   11.8807   -2.0015 C.3     1  UNL1        0.0000
     10 H          13.2343   11.8644   -3.0865 H       1  UNL1        0.0000
     11 H          13.9772   11.0727   -1.7138 H       1  UNL1        0.0000
     12 H          13.7947   12.8137   -1.7290 H       1  UNL1        0.0000
     13 C          10.7259   13.4091   -1.5243 C.3     1  UNL1        0.0000
     14 H          11.2669   14.2354   -1.0737 H       1  UNL1        0.0000
     15 H           9.7152   13.4279   -1.1286 H       1  UNL1        0.0000
     16 H          10.6617   13.6091   -2.5907 H       1  UNL1        0.0000
     17 C           7.7808   11.6340    0.9103 C.3     1  UNL1        0.0000
     18 H           6.9841   12.3019    1.2233 H       1  UNL1        0.0000
     19 H           7.3867   10.6241    0.9572 H       1  UNL1        0.0000
     20 H           7.9957   11.8569   -0.1305 H       1  UNL1        0.0000
     21 C           8.8815   11.0451    3.7199 C.3     1  UNL1        0.0000
     22 H           7.8206   11.1323    3.9394 H       1  UNL1        0.0000
     23 H           9.4185   11.5211    4.5350 H       1  UNL1        0.0000
     24 H           9.1348    9.9877    3.7503 H       1  UNL1        0.0000
     25 C           9.4520   13.7373    2.3741 C.3     1  UNL1        0.0000
     26 H           9.5827   14.3020    1.4561 H       1  UNL1        0.0000
     27 H          10.2976   13.9591    3.0173 H       1  UNL1        0.0000
     28 H           8.5599   14.1160    2.8663 H       1  UNL1        0.0000
     29 C          12.6707   11.2861    3.4446 C.3     1  UNL1        0.0000
     30 H          11.7464   10.7891    3.7409 H       1  UNL1        0.0000
     31 H          12.6861   12.2680    3.9335 H       1  UNL1        0.0000
     32 C          13.8501   10.4555    3.9539 C.3     1  UNL1        0.0000
     33 H          13.9037    9.5191    3.4033 H       1  UNL1        0.0000
     34 H          13.7097   10.2304    5.0070 H       1  UNL1        0.0000
     35 H          14.7936   10.9833    3.8366 H       1  UNL1        0.0000
     36 C          13.6536   12.3902    1.5293 C.3     1  UNL1        0.0000
     37 H          13.8851   12.1583    0.4905 H       1  UNL1        0.0000
     38 H          14.5769   12.2735    2.1058 H       1  UNL1        0.0000
     39 C          13.1940   13.8467    1.6200 C.3     1  UNL1        0.0000
     40 H          12.2736   13.9778    1.0591 H       1  UNL1        0.0000
     41 H          13.9578   14.5050    1.2133 H       1  UNL1        0.0000
     42 H          13.0131   14.1308    2.6535 H       1  UNL1        0.0000
@<TRIPOS>BOND
     1     6     5    1
     2    10     9    1
     3    16    13    1
     4     5     7    1
     5     5     8    1
     6     5     2    1
     7     9    12    1
     8     9    11    1
     9     9     2    1
    10    13     2    1
    11    13    15    1
    12    13    14    1
    13     2     1    1
    14    20    17    1
    15    37    36    1
    16    17    19    1
    17    17    18    1
    18    17     3    1
    19     1     4    1
    20     1     3    1
    21    40    39    1
    22    41    39    1
    23    26    25    1
    24    36    39    1
    25    36     4    1
    26    36    38    1
    27    39    42    1
    28     4    29    1
    29     3    25    1
    30     3    21    1
    31    25    28    1
    32    25    27    1
    33    33    32    1
    34    29    30    1
    35    29    31    1
    36    29    32    1
    37    21    24    1
    38    21    22    1
    39    21    23    1
    40    35    32    1
    41    32    34    1
    42     1    29    0
