@<TRIPOS>MOLECULE
1
 24 25 0 0 0
SMALL
GASTEIGER

@<TRIPOS>ATOM
      1 SI          0.1895    5.9622   15.5775 Si      1  UNL1        0.0000
      2 H           0.6714    4.5435   15.8079 H       1  UNL1        0.0000
      3 C          -1.4478    5.8749   16.5668 C.ar    1  UNL1        0.0000
      4 C          -1.6108    4.9879   17.6248 C.ar    1  UNL1        0.0000
      5 H          -0.7899    4.3442   17.9018 H       1  UNL1        0.0000
      6 C          -2.5473    6.6455   16.2075 C.ar    1  UNL1        0.0000
      7 H          -2.4747    7.3007   15.3530 H       1  UNL1        0.0000
      8 C          -0.5685    5.7270   13.8384 C.ar    1  UNL1        0.0000
      9 C          -1.1907    6.7541   13.1407 C.ar    1  UNL1        0.0000
     10 H          -1.1894    7.7539   13.5438 H       1  UNL1        0.0000
     11 C          -0.5968    4.4583   13.2718 C.ar    1  UNL1        0.0000
     12 H          -0.1371    3.6372   13.8021 H       1  UNL1        0.0000
     13 C          -3.7454    6.5661   16.8954 C.ar    1  UNL1        0.0000
     14 H          -4.5836    7.1800   16.5944 H       1  UNL1        0.0000
     15 C          -2.8055    4.8923   18.3168 C.ar    1  UNL1        0.0000
     16 H          -2.9039    4.1885   19.1331 H       1  UNL1        0.0000
     17 C          -1.8004    6.5316   11.9181 C.ar    1  UNL1        0.0000
     18 H          -2.2726    7.3524   11.3960 H       1  UNL1        0.0000
     19 C          -3.8775    5.6933   17.9617 C.ar    1  UNL1        0.0000
     20 H          -4.8120    5.6270   18.5010 H       1  UNL1        0.0000
     21 C          -1.8049    5.2633   11.3646 C.ar    1  UNL1        0.0000
     22 H          -2.2780    5.0856   10.4089 H       1  UNL1        0.0000
     23 C          -1.2013    4.2227   12.0502 C.ar    1  UNL1        0.0000
     24 H          -1.2049    3.2254   11.6317 H       1  UNL1        0.0000
@<TRIPOS>BOND
     1    22    21    1
     2    21    17   ar
     3    21    23   ar
     4    18    17    1
     5    24    23    1
     6    17     9   ar
     7    23    11   ar
     8     9    10    1
     9     9     8   ar
    10    11    12    1
    11    11     8   ar
    12     8     1    1
    13     7     6    1
    14     1     2    1
    15     1     3    1
    16     6     3   ar
    17     6    13   ar
    18     3     4   ar
    19    14    13    1
    20    13    19   ar
    21     4     5    1
    22     4    15   ar
    23    19    15   ar
    24    19    20    1
    25    15    16    1
