@<TRIPOS>MOLECULE
1
 14 14 0 0 0
SMALL
GASTEIGER

@<TRIPOS>ATOM
      1 SI          1.1625    2.9523   10.3388 Si      1  UNL1        0.0000
      2 H           2.3568    3.1252    9.4654 H       1  UNL1        0.0000
      3 H           0.6916    4.3673   10.3278 H       1  UNL1        0.0000
      4 C           1.9414    2.7405   12.0622 C.ar    1  UNL1        0.0000
      5 C           3.0182    3.4764   12.5344 C.ar    1  UNL1        0.0000
      6 H           3.4344    4.2512   11.9070 H       1  UNL1        0.0000
      7 C           3.5598    3.2311   13.7846 C.ar    1  UNL1        0.0000
      8 H           4.3967    3.8172   14.1382 H       1  UNL1        0.0000
      9 C           3.0324    2.2311   14.5839 C.ar    1  UNL1        0.0000
     10 H           3.4548    2.0346   15.5588 H       1  UNL1        0.0000
     11 C           1.9587    1.4811   14.1305 C.ar    1  UNL1        0.0000
     12 H           1.5449    0.6984   14.7516 H       1  UNL1        0.0000
     13 C           1.4236    1.7412   12.8823 C.ar    1  UNL1        0.0000
     14 H           0.5535    1.1542   12.5435 H       1  UNL1        0.0000
@<TRIPOS>BOND
     1     2     1    1
     2     3     1    1
     3     1     4    1
     4     6     5    1
     5     4     5   ar
     6     4    13   ar
     7     5     7   ar
     8    14    13    1
     9    13    11   ar
    10     7     8    1
    11     7     9   ar
    12    11     9   ar
    13    11    12    1
    14     9    10    1
