@<TRIPOS>MOLECULE
1
 24 25 0 0 0
SMALL
GASTEIGER

@<TRIPOS>ATOM
      1 SI          4.3945    3.0492    4.1281 Si      1  UNL1        0.0000
      2 C           4.3155    4.7104    5.0617 C.ar    1  UNL1        0.0000
      3 C           4.2320    4.7607    6.4513 C.ar    1  UNL1        0.0000
      4 C           4.1609    5.9726    7.1143 C.ar    1  UNL1        0.0000
      5 C           4.1755    7.1581    6.3979 C.ar    1  UNL1        0.0000
      6 C           4.2656    7.1247    5.0164 C.ar    1  UNL1        0.0000
      7 C           4.3351    5.9107    4.3574 C.ar    1  UNL1        0.0000
      8 C           5.8623    3.1352    2.9179 C.ar    1  UNL1        0.0000
      9 C           5.6845    2.8996    1.5582 C.ar    1  UNL1        0.0000
     10 C           6.7451    2.9759    0.6732 C.ar    1  UNL1        0.0000
     11 C           8.0105    3.2941    1.1359 C.ar    1  UNL1        0.0000
     12 C           8.2043    3.5398    2.4854 C.ar    1  UNL1        0.0000
     13 C           7.1402    3.4596    3.3648 C.ar    1  UNL1        0.0000
     14 H           3.2049    3.0347    3.2254 H       1  UNL1        0.0000
     15 H           4.2327    3.8267    7.0102 H       1  UNL1        0.0000
     16 H           4.0953    5.9939    8.1922 H       1  UNL1        0.0000
     17 H           4.1198    8.1051    6.9147 H       1  UNL1        0.0000
     18 H           4.2816    8.0466    4.4532 H       1  UNL1        0.0000
     19 H           4.4091    5.8863    3.2803 H       1  UNL1        0.0000
     20 H           4.6983    2.6597    1.1852 H       1  UNL1        0.0000
     21 H           6.5854    2.7883   -0.3792 H       1  UNL1        0.0000
     22 H           8.8410    3.3521    0.4473 H       1  UNL1        0.0000
     23 H           9.1890    3.7928    2.8513 H       1  UNL1        0.0000
     24 H           7.2958    3.6503    4.4167 H       1  UNL1        0.0000
@<TRIPOS>BOND
     1    21    10    1
     2    22    11    1
     3    10    11   ar
     4    10     9   ar
     5    11    12   ar
     6    20     9    1
     7     9     8   ar
     8    12    23    1
     9    12    13   ar
    10     8    13   ar
    11     8     1    1
    12    14     1    1
    13    19     7    1
    14    13    24    1
    15     1     2    1
    16     7     6   ar
    17     7     2   ar
    18    18     6    1
    19     6     5   ar
    20     2     3   ar
    21     5    17    1
    22     5     4   ar
    23     3    15    1
    24     3     4   ar
    25     4    16    1
