@<TRIPOS>MOLECULE
1
 34 36 0 0 0
SMALL
GASTEIGER

@<TRIPOS>ATOM
      1 SI         13.0471    4.7837   -0.4020 Si      1  UNL1        0.0000
      2 C          14.7971    4.0414   -0.0863 C.ar    1  UNL1        0.0000
      3 C          14.1184    7.3968   -1.2580 C.ar    1  UNL1        0.0000
      4 H          14.9212    7.2477   -0.5515 H       1  UNL1        0.0000
      5 C          11.2785    2.8029   -1.6110 C.ar    1  UNL1        0.0000
      6 H          10.7228    2.8777   -0.6890 H       1  UNL1        0.0000
      7 C          12.1449    6.6636   -2.3543 C.ar    1  UNL1        0.0000
      8 H          11.3819    5.9145   -2.5059 H       1  UNL1        0.0000
      9 C          16.1669    2.0463    0.0613 C.ar    1  UNL1        0.0000
     10 H          16.2687    0.9774   -0.0663 H       1  UNL1        0.0000
     11 C          12.4147    3.5855   -1.7657 C.ar    1  UNL1        0.0000
     12 C          14.0824    8.5814   -1.9732 C.ar    1  UNL1        0.0000
     13 H          14.8509    9.3280   -1.8172 H       1  UNL1        0.0000
     14 C          12.0974    7.8418   -3.0746 C.ar    1  UNL1        0.0000
     15 H          11.3007    8.0099   -3.7865 H       1  UNL1        0.0000
     16 C          15.8834    4.7649    0.3916 C.ar    1  UNL1        0.0000
     17 H          15.7981    5.8315    0.5404 H       1  UNL1        0.0000
     18 C          12.7075    2.6246   -3.9661 C.ar    1  UNL1        0.0000
     19 H          13.2712    2.5581   -4.8869 H       1  UNL1        0.0000
     20 C          17.0920    4.1575    0.6847 C.ar    1  UNL1        0.0000
     21 H          17.9222    4.7511    1.0435 H       1  UNL1        0.0000
     22 C          13.1201    3.4799   -2.9611 C.ar    1  UNL1        0.0000
     23 H          14.0088    4.0798   -3.1031 H       1  UNL1        0.0000
     24 C          10.8571    1.9436   -2.6112 C.ar    1  UNL1        0.0000
     25 H           9.9689    1.3425   -2.4704 H       1  UNL1        0.0000
     26 C          14.9678    2.6663   -0.2356 C.ar    1  UNL1        0.0000
     27 H          14.1393    2.0754   -0.5962 H       1  UNL1        0.0000
     28 C          17.2391    2.7919    0.5223 C.ar    1  UNL1        0.0000
     29 H          18.1807    2.3133    0.7531 H       1  UNL1        0.0000
     30 C          11.5713    1.8514   -3.7935 C.ar    1  UNL1        0.0000
     31 H          11.2456    1.1811   -4.5770 H       1  UNL1        0.0000
     32 C          13.1617    6.4059   -1.4374 C.ar    1  UNL1        0.0000
     33 C          13.0716    8.8085   -2.8895 C.ar    1  UNL1        0.0000
     34 H          13.0439    9.7278   -3.4581 H       1  UNL1        0.0000
@<TRIPOS>BOND
     1    19    18    1
     2    31    30    1
     3    18    30   ar
     4    18    22   ar
     5    30    24   ar
     6    15    14    1
     7    34    33    1
     8    23    22    1
     9    14    33   ar
    10    14     7   ar
    11    22    11   ar
    12    33    12   ar
    13    24    25    1
    14    24     5   ar
    15     8     7    1
    16     7    32   ar
    17    12    13    1
    18    12     3   ar
    19    11     5   ar
    20    11     1    1
    21     5     6    1
    22    32     3   ar
    23    32     1    1
    24     3     4    1
    25    27    26    1
    26     1     2    1
    27    26     2   ar
    28    26     9   ar
    29     2    16   ar
    30    10     9    1
    31     9    28   ar
    32    16    17    1
    33    16    20   ar
    34    28    20   ar
    35    28    29    1
    36    20    21    1
