@<TRIPOS>MOLECULE
1
 34 36 0 0 0
SMALL
GASTEIGER

@<TRIPOS>ATOM
      1 SI         26.6432    2.4668   17.5874 Si      1  UNL1        0.0000
      2 C          25.1014    3.4218   16.9481 C.ar    1  UNL1        0.0000
      3 C          27.9819    3.0490   16.3475 C.ar    1  UNL1        0.0000
      4 C          27.2955    3.1626   19.2540 C.ar    1  UNL1        0.0000
      5 C          24.1691    4.0614   17.7533 C.ar    1  UNL1        0.0000
      6 H          24.3277    4.1157   18.8192 H       1  UNL1        0.0000
      7 C          28.0248    4.3887   15.9716 C.ar    1  UNL1        0.0000
      8 H          27.2855    5.0719   16.3664 H       1  UNL1        0.0000
      9 C          24.8526    3.3963   15.5777 C.ar    1  UNL1        0.0000
     10 H          25.5657    2.9066   14.9310 H       1  UNL1        0.0000
     11 C          23.0392    4.6584   17.2202 C.ar    1  UNL1        0.0000
     12 H          22.3358    5.1582   17.8735 H       1  UNL1        0.0000
     13 C          26.4914    3.4185   20.3597 C.ar    1  UNL1        0.0000
     14 H          25.4217    3.2755   20.2954 H       1  UNL1        0.0000
     15 C          28.9448    2.1931   15.8270 C.ar    1  UNL1        0.0000
     16 H          28.9312    1.1530   16.1125 H       1  UNL1        0.0000
     17 C          29.9441    3.9906   14.5922 C.ar    1  UNL1        0.0000
     18 H          30.7022    4.3550   13.9129 H       1  UNL1        0.0000
     19 C          29.9176    2.6557   14.9581 C.ar    1  UNL1        0.0000
     20 H          30.6586    1.9736   14.5653 H       1  UNL1        0.0000
     21 C          28.6691    3.3361   19.4081 C.ar    1  UNL1        0.0000
     22 H          29.3192    3.1285   18.5721 H       1  UNL1        0.0000
     23 C          28.9929    4.8581   15.1030 C.ar    1  UNL1        0.0000
     24 H          29.0079    5.9027   14.8233 H       1  UNL1        0.0000
     25 C          23.7303    3.9909   15.0336 C.ar    1  UNL1        0.0000
     26 H          23.5671    3.9640   13.9651 H       1  UNL1        0.0000
     27 C          22.8140    4.6254   15.8560 C.ar    1  UNL1        0.0000
     28 H          21.9367    5.0967   15.4353 H       1  UNL1        0.0000
     29 C          27.0259    3.8525   21.5598 C.ar    1  UNL1        0.0000
     30 H          26.3734    4.0528   22.4000 H       1  UNL1        0.0000
     31 C          28.3921    4.0249   21.6887 C.ar    1  UNL1        0.0000
     32 H          28.8130    4.3598   22.6265 H       1  UNL1        0.0000
     33 C          29.2135    3.7605   20.6057 C.ar    1  UNL1        0.0000
     34 H          30.2832    3.8845   20.6974 H       1  UNL1        0.0000
@<TRIPOS>BOND
     1    18    17    1
     2    26    25    1
     3    20    19    1
     4    17    19   ar
     5    17    23   ar
     6    24    23    1
     7    10     9    1
     8    19    15   ar
     9    25     9   ar
    10    25    27   ar
    11    23     7   ar
    12    28    27    1
    13     9     2   ar
    14    15    16    1
    15    15     3   ar
    16    27    11   ar
    17     7     3   ar
    18     7     8    1
    19     3     1    1
    20     2     1    1
    21     2     5   ar
    22    11     5   ar
    23    11    12    1
    24     1     4    1
    25     5     6    1
    26    22    21    1
    27     4    21   ar
    28     4    13   ar
    29    21    33   ar
    30    14    13    1
    31    13    29   ar
    32    33    34    1
    33    33    31   ar
    34    29    31   ar
    35    29    30    1
    36    31    32    1
