@<TRIPOS>MOLECULE
1
 34 36 0 0 0
SMALL
GASTEIGER

@<TRIPOS>ATOM
      1 SI          1.4669    8.1162    9.4831 Si      1  UNL1        0.0000
      2 C           0.4007    6.5811    8.9986 C.ar    1  UNL1        0.0000
      3 C           0.7923    8.7485   11.1727 C.ar    1  UNL1        0.0000
      4 C           0.7524    9.3864    8.2337 C.ar    1  UNL1        0.0000
      5 C          -0.7204    6.1553    9.7004 C.ar    1  UNL1        0.0000
      6 H          -1.0622    6.7195   10.5556 H       1  UNL1        0.0000
      7 C           0.7596    5.8582    7.8650 C.ar    1  UNL1        0.0000
      8 H           1.6000    6.2005    7.2779 H       1  UNL1        0.0000
      9 C           1.5167    9.9315    7.2118 C.ar    1  UNL1        0.0000
     10 H           2.5576    9.6524    7.1360 H       1  UNL1        0.0000
     11 C           0.7330   10.1178   11.4106 C.ar    1  UNL1        0.0000
     12 H           0.9741   10.7961   10.6047 H       1  UNL1        0.0000
     13 C           0.1217    8.3959   13.4724 C.ar    1  UNL1        0.0000
     14 H          -0.1190    7.7111   14.2761 H       1  UNL1        0.0000
     15 C          -1.4276    5.0286    9.3157 C.ar    1  UNL1        0.0000
     16 H          -2.3003    4.7208    9.8776 H       1  UNL1        0.0000
     17 C           0.4899    7.9014   12.2334 C.ar    1  UNL1        0.0000
     18 H           0.5381    6.8303   12.0914 H       1  UNL1        0.0000
     19 C           0.0610    4.7321    7.4706 C.ar    1  UNL1        0.0000
     20 H           0.3634    4.1870    6.5865 H       1  UNL1        0.0000
     21 C          -1.0303    4.3023    8.2068 C.ar    1  UNL1        0.0000
     22 H          -1.5782    3.4187    7.9085 H       1  UNL1        0.0000
     23 C           0.9694   10.8199    6.3028 C.ar    1  UNL1        0.0000
     24 H           1.5821   11.2345    5.5138 H       1  UNL1        0.0000
     25 C          -0.5859    9.7541    8.3167 C.ar    1  UNL1        0.0000
     26 H          -1.2005    9.3393    9.1038 H       1  UNL1        0.0000
     27 C           0.3678   10.6235   12.6444 C.ar    1  UNL1        0.0000
     28 H           0.3227   11.6928   12.8002 H       1  UNL1        0.0000
     29 C           0.0576    9.7619   13.6832 C.ar    1  UNL1        0.0000
     30 H          -0.2346   10.1535   14.6480 H       1  UNL1        0.0000
     31 C          -0.3636   11.1796    6.4027 C.ar    1  UNL1        0.0000
     32 H          -0.7955   11.8743    5.6954 H       1  UNL1        0.0000
     33 C          -1.1419   10.6428    7.4147 C.ar    1  UNL1        0.0000
     34 H          -2.1846   10.9183    7.4982 H       1  UNL1        0.0000
@<TRIPOS>BOND
     1    24    23    1
     2    32    31    1
     3    23    31   ar
     4    23     9   ar
     5    31    33   ar
     6    20    19    1
     7    10     9    1
     8     9     4   ar
     9     8     7    1
    10    33    34    1
    11    33    25   ar
    12    19     7   ar
    13    19    21   ar
    14     7     2   ar
    15    22    21    1
    16    21    15   ar
    17     4    25   ar
    18     4     1    1
    19    25    26    1
    20     2     1    1
    21     2     5   ar
    22    15     5   ar
    23    15    16    1
    24     1     3    1
    25     5     6    1
    26    12    11    1
    27     3    11   ar
    28     3    17   ar
    29    11    27   ar
    30    18    17    1
    31    17    13   ar
    32    27    28    1
    33    27    29   ar
    34    13    29   ar
    35    13    14    1
    36    29    30    1
