@<TRIPOS>MOLECULE
2
 40 40 0 0 0
SMALL
GASTEIGER

@<TRIPOS>ATOM
      1 CL          7.1303   11.9086   10.3861 Cl      1  UNL1        0.0000
      2 SI          7.7300   10.1884   11.4764 Si      1  UNL1        0.0000
      3 C           6.7774   12.1108   15.0987 C.ar    1  UNL1        0.0000
      4 H           5.8799   12.3806   15.6367 H       1  UNL1        0.0000
      5 C           9.0816   11.4344   13.7213 C.ar    1  UNL1        0.0000
      6 C           9.1477   12.1206   14.9238 C.ar    1  UNL1        0.0000
      7 H          10.1115   12.4000   15.3185 H       1  UNL1        0.0000
      8 C           4.4566   10.3449   14.3959 C.3     1  UNL1        0.0000
      9 H           5.0126    9.5081   14.8143 H       1  UNL1        0.0000
     10 H           3.5499    9.9621   13.9318 H       1  UNL1        0.0000
     11 H           4.1644   10.9990   15.2132 H       1  UNL1        0.0000
     12 C           5.2998   11.0978   13.3639 C.3     1  UNL1        0.0000
     13 H           5.4150   10.4515   12.4858 H       1  UNL1        0.0000
     14 C           8.0056   12.4658   15.6295 C.ar    1  UNL1        0.0000
     15 C           6.6752   11.4283   13.8947 C.ar    1  UNL1        0.0000
     16 C           7.8329   11.0861   13.1879 C.ar    1  UNL1        0.0000
     17 C           4.5831   12.3723   12.9140 C.3     1  UNL1        0.0000
     18 H           5.1531   12.8676   12.1328 H       1  UNL1        0.0000
     19 H           4.4684   13.0634   13.7457 H       1  UNL1        0.0000
     20 H           3.5959   12.1329   12.5238 H       1  UNL1        0.0000
     21 C          10.3598   11.1341   12.9736 C.3     1  UNL1        0.0000
     22 H          10.1659   10.3222   12.2651 H       1  UNL1        0.0000
     23 C           8.8351   12.3793   17.9858 C.3     1  UNL1        0.0000
     24 H           8.3502   11.4142   18.1167 H       1  UNL1        0.0000
     25 H           8.8437   12.8966   18.9431 H       1  UNL1        0.0000
     26 H           9.8638   12.2057   17.6800 H       1  UNL1        0.0000
     27 C          11.4946   10.6714   13.8886 C.3     1  UNL1        0.0000
     28 H          11.1451    9.8881   14.5570 H       1  UNL1        0.0000
     29 H          11.8922   11.4898   14.4839 H       1  UNL1        0.0000
     30 H          12.3083   10.2715   13.2877 H       1  UNL1        0.0000
     31 C           8.0905   13.2105   16.9390 C.3     1  UNL1        0.0000
     32 H           7.0704   13.3811   17.3023 H       1  UNL1        0.0000
     33 C           8.7608   14.5728   16.7502 C.3     1  UNL1        0.0000
     34 H           8.7541   15.1299   17.6848 H       1  UNL1        0.0000
     35 H           8.2327   15.1528   15.9965 H       1  UNL1        0.0000
     36 H           9.7929   14.4546   16.4298 H       1  UNL1        0.0000
     37 C          10.7777   12.3714   12.1746 C.3     1  UNL1        0.0000
     38 H           9.9912   12.6571   11.4803 H       1  UNL1        0.0000
     39 H          11.6842   12.1689   11.6080 H       1  UNL1        0.0000
     40 H          10.9666   13.2103   12.8417 H       1  UNL1        0.0000
@<TRIPOS>BOND
     1     1     2    1
     2     2    16    1
     3    38    37    1
     4    39    37    1
     5    18    17    1
     6    37    40    1
     7    37    21    1
     8    22    21    1
     9    13    12    1
    10    20    17    1
    11    17    12    1
    12    17    19    1
    13    21     5    1
    14    21    27    1
    15    16     5   ar
    16    16    15   ar
    17    30    27    1
    18    12    15    1
    19    12     8    1
    20     5     6   ar
    21    27    29    1
    22    27    28    1
    23    15     3   ar
    24    10     8    1
    25     8     9    1
    26     8    11    1
    27     6     7    1
    28     6    14   ar
    29     3    14   ar
    30     3     4    1
    31    14    31    1
    32    35    33    1
    33    36    33    1
    34    33    31    1
    35    33    34    1
    36    31    32    1
    37    31    23    1
    38    26    23    1
    39    23    24    1
    40    23    25    1
