@<TRIPOS>MOLECULE
1
 25 24 0 0 0
SMALL
GASTEIGER

@<TRIPOS>ATOM
      1 SI          3.8508   18.4373    5.2982 Si      1  UNL1        0.0000
      2 O           4.6607   18.1741    6.7397 O.3     1  UNL1        0.0000
      3 O           2.5176   17.4314    5.3201 O.3     1  UNL1        0.0000
      4 O           3.3471   20.0399    5.4795 O.3     1  UNL1        0.0000
      5 C           4.3173   17.2849    7.7636 C.3     1  UNL1        0.0000
      6 H           3.9522   16.3454    7.3332 H       1  UNL1        0.0000
      7 H           3.5054   17.7218    8.3635 H       1  UNL1        0.0000
      8 C           5.5188   17.0267    8.6625 C.3     1  UNL1        0.0000
      9 H           5.2207   16.4054    9.5034 H       1  UNL1        0.0000
     10 H           5.9071   17.9712    9.0351 H       1  UNL1        0.0000
     11 H           6.3056   16.5227    8.1093 H       1  UNL1        0.0000
     12 C           1.3591   17.4312    6.1143 C.3     1  UNL1        0.0000
     13 H           0.9561   18.4501    6.1700 H       1  UNL1        0.0000
     14 H           1.6022   17.1039    7.1328 H       1  UNL1        0.0000
     15 C           0.3238   16.4971    5.5027 C.3     1  UNL1        0.0000
     16 H          -0.5926   16.5228    6.0875 H       1  UNL1        0.0000
     17 H           0.7095   15.4817    5.4855 H       1  UNL1        0.0000
     18 H           0.1061   16.7996    4.4814 H       1  UNL1        0.0000
     19 C           3.1978   20.7364    6.6930 C.3     1  UNL1        0.0000
     20 H           3.8820   21.5945    6.6674 H       1  UNL1        0.0000
     21 H           3.4998   20.0928    7.5241 H       1  UNL1        0.0000
     22 C           1.7695   21.2238    6.9068 C.3     1  UNL1        0.0000
     23 H           1.7247   21.8420    7.8005 H       1  UNL1        0.0000
     24 H           1.0905   20.3833    7.0285 H       1  UNL1        0.0000
     25 H           1.4326   21.8074    6.0530 H       1  UNL1        0.0000
@<TRIPOS>BOND
     1    18    15    1
     2     1     3    1
     3     1     4    1
     4     1     2    1
     5     3    12    1
     6     4    19    1
     7    17    15    1
     8    15    16    1
     9    15    12    1
    10    25    22    1
    11    12    13    1
    12    12    14    1
    13    20    19    1
    14    19    22    1
    15    19    21    1
    16     2     5    1
    17    22    24    1
    18    22    23    1
    19     6     5    1
    20     5     7    1
    21     5     8    1
    22    11     8    1
    23     8    10    1
    24     8     9    1
