@<TRIPOS>MOLECULE
1
 13 12 0 0 0
SMALL
GASTEIGER

@<TRIPOS>ATOM
      1 SI          8.1480    4.2834   11.3032 Si      1  UNL1        0.0000
      2 C           6.4377    3.8880   10.4756 C.3     1  UNL1        0.0000
      3 C           8.9438    5.7841   10.3738 C.3     1  UNL1        0.0000
      4 C           7.6400    5.0758   12.9981 C.3     1  UNL1        0.0000
      5 H           5.6311    4.2663   11.0946 H       1  UNL1        0.0000
      6 H           6.3532    4.3816    9.5140 H       1  UNL1        0.0000
      7 H           6.2593    2.8290   10.3196 H       1  UNL1        0.0000
      8 H           8.9215    6.6646   11.0063 H       1  UNL1        0.0000
      9 H           9.9792    5.6120   10.0973 H       1  UNL1        0.0000
     10 H           8.3923    6.0240    9.4722 H       1  UNL1        0.0000
     11 H           7.1833    4.3734   13.6863 H       1  UNL1        0.0000
     12 H           8.4919    5.5232   13.4984 H       1  UNL1        0.0000
     13 H           6.9212    5.8686   12.8165 H       1  UNL1        0.0000
@<TRIPOS>BOND
     1    10     3    1
     2     6     2    1
     3     9     3    1
     4     7     2    1
     5     3     8    1
     6     3     1    1
     7     2     5    1
     8     2     1    1
     9     1     4    1
    10    13     4    1
    11     4    12    1
    12     4    11    1
