@<TRIPOS>MOLECULE
2
 24 25 0 0 0
SMALL
GASTEIGER

@<TRIPOS>ATOM
      1 CL          6.7217    6.1756    9.9694 Cl      1  UNL1        0.0000
      2 SI          7.6543    4.7935   11.2781 Si      1  UNL1        0.0000
      3 C           9.3875    4.6558   10.4649 C.ar    1  UNL1        0.0000
      4 C          10.4944    4.2423   11.1954 C.ar    1  UNL1        0.0000
      5 H          10.3864    4.0317   12.2489 H       1  UNL1        0.0000
      6 C          11.7358    4.1005   10.6024 C.ar    1  UNL1        0.0000
      7 H          12.5826    3.7798   11.1934 H       1  UNL1        0.0000
      8 C          11.8938    4.3720    9.2541 C.ar    1  UNL1        0.0000
      9 H          12.8628    4.2652    8.7871 H       1  UNL1        0.0000
     10 C          10.8007    4.7808    8.5100 C.ar    1  UNL1        0.0000
     11 H          10.9125    4.9935    7.4561 H       1  UNL1        0.0000
     12 C           9.5629    4.9174    9.1116 C.ar    1  UNL1        0.0000
     13 H           8.7204    5.2386    8.5189 H       1  UNL1        0.0000
     14 C           6.7993    3.1887   10.6584 C.ar    1  UNL1        0.0000
     15 C           5.4212    3.1310   10.4798 C.ar    1  UNL1        0.0000
     16 H           4.8275    4.0149   10.6703 H       1  UNL1        0.0000
     17 C           4.8055    1.9720   10.0408 C.ar    1  UNL1        0.0000
     18 H           3.7325    1.9475    9.9077 H       1  UNL1        0.0000
     19 C           5.5639    0.8471    9.7666 C.ar    1  UNL1        0.0000
     20 H           5.0862   -0.0597    9.4233 H       1  UNL1        0.0000
     21 C           6.9391    0.8954    9.9198 C.ar    1  UNL1        0.0000
     22 H           7.5395    0.0265    9.6901 H       1  UNL1        0.0000
     23 C           7.5474    2.0557   10.3612 C.ar    1  UNL1        0.0000
     24 H           8.6215    2.0905   10.4688 H       1  UNL1        0.0000
@<TRIPOS>BOND
     1    11    10    1
     2    10    12   ar
     3    10     8   ar
     4    13    12    1
     5     9     8    1
     6    12     3   ar
     7     8     6   ar
     8    20    19    1
     9    22    21    1
    10    19    21   ar
    11    19    17   ar
    12    18    17    1
    13    21    23   ar
    14     1     2    1
    15    17    15   ar
    16    23    24    1
    17    23    14   ar
    18     3     4   ar
    19     3     2    1
    20    15    14   ar
    21    15    16    1
    22     6     7    1
    23     6     4   ar
    24    14     2    1
    25     4     5    1
