@<TRIPOS>MOLECULE
1
 34 36 0 0 0
SMALL
GASTEIGER

@<TRIPOS>ATOM
      1 SI         13.7582    0.0021    0.6428 Si      1  UNL1        0.0000
      2 C          13.1687   -0.7166    2.3125 C.ar    1  UNL1        0.0000
      3 C          12.4707    0.0834    3.2071 C.ar    1  UNL1        0.0000
      4 C          12.0350   -0.3983    4.4277 C.ar    1  UNL1        0.0000
      5 C          12.2920   -1.7126    4.7807 C.ar    1  UNL1        0.0000
      6 C          12.9854   -2.5288    3.9036 C.ar    1  UNL1        0.0000
      7 C          13.4156   -2.0322    2.6852 C.ar    1  UNL1        0.0000
      8 C          15.2070   -1.1572    0.2152 C.ar    1  UNL1        0.0000
      9 C          16.2522   -1.2748    1.1240 C.ar    1  UNL1        0.0000
     10 C          17.3230   -2.1178    0.8938 C.ar    1  UNL1        0.0000
     11 C          17.3733   -2.8670   -0.2706 C.ar    1  UNL1        0.0000
     12 C          16.3429   -2.7661   -1.1891 C.ar    1  UNL1        0.0000
     13 C          15.2721   -1.9228   -0.9420 C.ar    1  UNL1        0.0000
     14 C          12.3280   -0.5577   -0.4965 C.ar    1  UNL1        0.0000
     15 C          11.5143    0.3727   -1.1272 C.ar    1  UNL1        0.0000
     16 C          10.4591   -0.0108   -1.9350 C.ar    1  UNL1        0.0000
     17 C          10.1901   -1.3558   -2.1222 C.ar    1  UNL1        0.0000
     18 C          10.9742   -2.3020   -1.4832 C.ar    1  UNL1        0.0000
     19 C          12.0270   -1.9035   -0.6786 C.ar    1  UNL1        0.0000
     20 H          12.2947    1.1073    2.9273 H       1  UNL1        0.0000
     21 H          11.4979    0.2498    5.1074 H       1  UNL1        0.0000
     22 H          11.9565   -2.0980    5.7334 H       1  UNL1        0.0000
     23 H          13.1922   -3.5557    4.1724 H       1  UNL1        0.0000
     24 H          13.9667   -2.6764    2.0156 H       1  UNL1        0.0000
     25 H          16.2143   -0.6824    2.0256 H       1  UNL1        0.0000
     26 H          18.1216   -2.1947    1.6192 H       1  UNL1        0.0000
     27 H          18.2084   -3.5270   -0.4592 H       1  UNL1        0.0000
     28 H          16.3722   -3.3496   -2.0995 H       1  UNL1        0.0000
     29 H          14.4686   -1.8658   -1.6617 H       1  UNL1        0.0000
     30 H          11.7209    1.4173   -0.9569 H       1  UNL1        0.0000
     31 H           9.8438    0.7366   -2.4183 H       1  UNL1        0.0000
     32 H           9.3697   -1.6652   -2.7547 H       1  UNL1        0.0000
     33 H          10.7608   -3.3541   -1.6131 H       1  UNL1        0.0000
     34 H          12.6241   -2.6503   -0.1769 H       1  UNL1        0.0000
@<TRIPOS>BOND
     1    32    17    1
     2    31    16    1
     3    17    16   ar
     4    17    18   ar
     5    28    12    1
     6    16    15   ar
     7    29    13    1
     8    33    18    1
     9    18    19   ar
    10    12    13   ar
    11    12    11   ar
    12    15    30    1
    13    15    14   ar
    14    13     8   ar
    15    19    14   ar
    16    19    34    1
    17    14     1    1
    18    27    11    1
    19    11    10   ar
    20     8     1    1
    21     8     9   ar
    22     1     2    1
    23    10     9   ar
    24    10    26    1
    25     9    25    1
    26    24     7    1
    27     2     7   ar
    28     2     3   ar
    29     7     6   ar
    30    20     3    1
    31     3     4   ar
    32     6    23    1
    33     6     5   ar
    34     4     5   ar
    35     4    21    1
    36     5    22    1
