@<TRIPOS>MOLECULE
1
 24 25 0 0 0
SMALL
GASTEIGER

@<TRIPOS>ATOM
      1 SI          1.2578   10.4995    0.3136 Si      1  UNL1        0.0000
      2 H          -0.0727   11.0967   -0.0065 H       1  UNL1        0.0000
      3 C           1.8579    9.7071   -1.3039 C.ar    1  UNL1        0.0000
      4 C           0.9863    8.9476   -2.0781 C.ar    1  UNL1        0.0000
      5 H          -0.0456    8.8563   -1.7719 H       1  UNL1        0.0000
      6 C           1.4177    8.3132   -3.2281 C.ar    1  UNL1        0.0000
      7 H           0.7250    7.7267   -3.8146 H       1  UNL1        0.0000
      8 C           2.7393    8.4273   -3.6269 C.ar    1  UNL1        0.0000
      9 H           3.0809    7.9292   -4.5228 H       1  UNL1        0.0000
     10 C           3.6194    9.1847   -2.8729 C.ar    1  UNL1        0.0000
     11 H           4.6509    9.2806   -3.1807 H       1  UNL1        0.0000
     12 C           3.1795    9.8165   -1.7238 C.ar    1  UNL1        0.0000
     13 H           3.8712   10.4098   -1.1432 H       1  UNL1        0.0000
     14 C           2.4231   11.9504    0.6982 C.ar    1  UNL1        0.0000
     15 C           2.0639   13.2601    0.4059 C.ar    1  UNL1        0.0000
     16 H           1.1039   13.4519   -0.0512 H       1  UNL1        0.0000
     17 C           2.9129   14.3159    0.6879 C.ar    1  UNL1        0.0000
     18 H           2.6146   15.3278    0.4530 H       1  UNL1        0.0000
     19 C           4.1461   14.0761    1.2695 C.ar    1  UNL1        0.0000
     20 H           4.8120   14.8978    1.4904 H       1  UNL1        0.0000
     21 C           4.5224   12.7763    1.5665 C.ar    1  UNL1        0.0000
     22 H           5.4847   12.5827    2.0196 H       1  UNL1        0.0000
     23 C           3.6651   11.7286    1.2846 C.ar    1  UNL1        0.0000
     24 H           3.9582   10.7150    1.5251 H       1  UNL1        0.0000
@<TRIPOS>BOND
     1     9     8    1
     2     7     6    1
     3     8     6   ar
     4     8    10   ar
     5     6     4   ar
     6    11    10    1
     7    10    12   ar
     8     4     5    1
     9     4     3   ar
    10    12     3   ar
    11    12    13    1
    12     3     1    1
    13    16    15    1
    14     2     1    1
    15     1    14    1
    16    15    17   ar
    17    15    14   ar
    18    18    17    1
    19    17    19   ar
    20    14    23   ar
    21    19    20    1
    22    19    21   ar
    23    23    24    1
    24    23    21   ar
    25    21    22    1
