@<TRIPOS>MOLECULE
1
 28 27 0 0 0
SMALL
GASTEIGER

@<TRIPOS>ATOM
      1 SI          4.2257    1.4607    4.0751 Si      1  UNL1        0.0000
      2 SI          2.7948   -0.1017    2.9958 Si      1  UNL1        0.0000
      3 SI          2.9348    3.3392    4.7523 Si      1  UNL1        0.0000
      4 C           2.7255    0.2628    1.1189 C.3     1  UNL1        0.0000
      5 C           3.5589   -1.8517    3.1607 C.3     1  UNL1        0.0000
      6 C           0.9792   -0.2200    3.5978 C.3     1  UNL1        0.0000
      7 C           1.9856    4.1424    3.2962 C.3     1  UNL1        0.0000
      8 C           4.0029    4.7367    5.5251 C.3     1  UNL1        0.0000
      9 C           1.6251    2.8984    6.0767 C.3     1  UNL1        0.0000
     10 H           4.3016    0.7823    5.4296 H       1  UNL1        0.0000
     11 H           2.1594   -0.4916    0.5805 H       1  UNL1        0.0000
     12 H           2.2611    1.2220    0.9112 H       1  UNL1        0.0000
     13 H           3.7285    0.2823    0.6994 H       1  UNL1        0.0000
     14 H           4.5703   -1.8569    2.7602 H       1  UNL1        0.0000
     15 H           3.6136   -2.1597    4.2005 H       1  UNL1        0.0000
     16 H           2.9902   -2.6070    2.6253 H       1  UNL1        0.0000
     17 H           0.9356   -0.4353    4.6605 H       1  UNL1        0.0000
     18 H           0.4271   -1.0006    3.0813 H       1  UNL1        0.0000
     19 H           0.4536    0.7155    3.4325 H       1  UNL1        0.0000
     20 H           1.4596    3.3946    2.7103 H       1  UNL1        0.0000
     21 H           1.2469    4.8566    3.6478 H       1  UNL1        0.0000
     22 H           2.6534    4.6762    2.6273 H       1  UNL1        0.0000
     23 H           3.4157    5.6314    5.7130 H       1  UNL1        0.0000
     24 H           4.8250    5.0237    4.8749 H       1  UNL1        0.0000
     25 H           4.4288    4.4238    6.4735 H       1  UNL1        0.0000
     26 H           2.0912    2.4249    6.9348 H       1  UNL1        0.0000
     27 H           1.0877    3.7726    6.4350 H       1  UNL1        0.0000
     28 H           0.8944    2.2015    5.6800 H       1  UNL1        0.0000
@<TRIPOS>BOND
     1    11     4    1
     2    13     4    1
     3    12     4    1
     4     4     2    1
     5    16     5    1
     6    22     7    1
     7    20     7    1
     8    14     5    1
     9     2     5    1
    10     2     6    1
    11     2     1    1
    12    18     6    1
    13     5    15    1
    14     7    21    1
    15     7     3    1
    16    19     6    1
    17     6    17    1
    18     1     3    1
    19     1    10    1
    20     3     8    1
    21     3     9    1
    22    24     8    1
    23     8    23    1
    24     8    25    1
    25    28     9    1
    26     9    27    1
    27     9    26    1
