@<TRIPOS>MOLECULE
1
 59 59 0 0 0
SMALL
GASTEIGER

@<TRIPOS>ATOM
      1 SI          1.3319    8.0766    3.2751 Si      1  UNL1        0.0000
      2 SI          2.0531    6.8763    6.0291 Si      1  UNL1        0.0000
      3 SI         -0.9853    7.7396    5.3259 Si      1  UNL1        0.0000
      4 SI          1.2659   10.0158    5.7073 Si      1  UNL1        0.0000
      5 O           1.1746    6.4777    2.9860 O.2     1  UNL1        0.0000
      6 C           1.0959    5.7789    1.8121 C.2     1  UNL1        0.0000
      7 H           0.2998    6.1084    1.1539 H       1  UNL1        0.0000
      8 C           1.8993    4.7769    1.4932 C.2     1  UNL1        0.0000
      9 H           1.7335    4.2789    0.5497 H       1  UNL1        0.0000
     10 C           3.0424    4.2775    2.3154 C.3     1  UNL1        0.0000
     11 H           2.9833    4.6945    3.3203 H       1  UNL1        0.0000
     12 H           3.9705    4.6335    1.8582 H       1  UNL1        0.0000
     13 C           3.0744    2.7493    2.3794 C.3     1  UNL1        0.0000
     14 H           3.1112    2.3464    1.3646 H       1  UNL1        0.0000
     15 H           3.9824    2.4306    2.8960 H       1  UNL1        0.0000
     16 C           1.8567    2.1801    3.1033 C.3     1  UNL1        0.0000
     17 H           0.9490    2.5375    2.6120 H       1  UNL1        0.0000
     18 H           1.8451    2.5477    4.1313 H       1  UNL1        0.0000
     19 C           1.8659    0.6565    3.1133 C.3     1  UNL1        0.0000
     20 H           1.8522    0.2672    2.0976 H       1  UNL1        0.0000
     21 H           0.9957    0.2710    3.6393 H       1  UNL1        0.0000
     22 H           2.7596    0.2832    3.6092 H       1  UNL1        0.0000
     23 C           0.9116    8.1847    5.1231 C.3     1  UNL1        0.0000
     24 C          -1.5674    6.2640    4.2650 C.3     1  UNL1        0.0000
     25 H          -0.9267    5.3964    4.3511 H       1  UNL1        0.0000
     26 H          -1.6095    6.5367    3.2154 H       1  UNL1        0.0000
     27 H          -2.5682    5.9619    4.5596 H       1  UNL1        0.0000
     28 C          -1.4083    7.3439    7.1464 C.3     1  UNL1        0.0000
     29 H          -0.9465    6.4238    7.4857 H       1  UNL1        0.0000
     30 H          -2.4821    7.2259    7.2554 H       1  UNL1        0.0000
     31 H          -1.1011    8.1347    7.8191 H       1  UNL1        0.0000
     32 C          -2.0887    9.1862    4.7564 C.3     1  UNL1        0.0000
     33 H          -3.1343    8.9120    4.8570 H       1  UNL1        0.0000
     34 H          -1.9223    9.4288    3.7112 H       1  UNL1        0.0000
     35 H          -1.9349   10.0877    5.3364 H       1  UNL1        0.0000
     36 C           3.8060    6.8873    5.2685 C.3     1  UNL1        0.0000
     37 H           4.4010    6.0725    5.6708 H       1  UNL1        0.0000
     38 H           4.3394    7.8060    5.4823 H       1  UNL1        0.0000
     39 H           3.7789    6.7671    4.1905 H       1  UNL1        0.0000
     40 C           1.4046    5.0856    5.9068 C.3     1  UNL1        0.0000
     41 H           1.2248    4.8022    4.8774 H       1  UNL1        0.0000
     42 H           0.4802    4.9440    6.4549 H       1  UNL1        0.0000
     43 H           2.1339    4.3928    6.3177 H       1  UNL1        0.0000
     44 C           2.2317    7.2502    7.8924 C.3     1  UNL1        0.0000
     45 H           2.8506    6.4908    8.3597 H       1  UNL1        0.0000
     46 H           1.2761    7.2452    8.4023 H       1  UNL1        0.0000
     47 H           2.7017    8.2084    8.0770 H       1  UNL1        0.0000
     48 C           3.1441   10.3395    5.8233 C.3     1  UNL1        0.0000
     49 H           3.3243   11.3912    6.0245 H       1  UNL1        0.0000
     50 H           3.6391   10.1045    4.8856 H       1  UNL1        0.0000
     51 H           3.6293    9.7723    6.6088 H       1  UNL1        0.0000
     52 C           0.5070   10.4034    7.4159 C.3     1  UNL1        0.0000
     53 H           0.8414   11.3806    7.7513 H       1  UNL1        0.0000
     54 H           0.7922    9.6869    8.1761 H       1  UNL1        0.0000
     55 H          -0.5759   10.4313    7.3733 H       1  UNL1        0.0000
     56 C           0.6040   11.3153    4.4793 C.3     1  UNL1        0.0000
     57 H          -0.2187   10.9531    3.8770 H       1  UNL1        0.0000
     58 H           1.3790   11.6427    3.7935 H       1  UNL1        0.0000
     59 H           0.2544   12.1978    5.0063 H       1  UNL1        0.0000
@<TRIPOS>BOND
     1     9     8    1
     2     7     6    1
     3    14    13    1
     4     8     6    2
     5     8    10    1
     6     6     5    1
     7    12    10    1
     8    20    19    1
     9    10    13    1
    10    10    11    1
    11    13    15    1
    12    13    16    1
    13    17    16    1
    14     5     1    1
    15    16    19    1
    16    16    18    1
    17    19    22    1
    18    19    21    1
    19    26    24    1
    20     1    23    1
    21    34    32    1
    22    58    56    1
    23    57    56    1
    24    39    36    1
    25    24    25    1
    26    24    27    1
    27    24     3    1
    28    56    59    1
    29    56     4    1
    30    32    33    1
    31    32     3    1
    32    32    35    1
    33    41    40    1
    34    50    48    1
    35    23     3    1
    36    23     4    1
    37    23     2    1
    38    36    38    1
    39    36    37    1
    40    36     2    1
    41     3    28    1
    42     4    48    1
    43     4    52    1
    44    48    49    1
    45    48    51    1
    46    40     2    1
    47    40    43    1
    48    40    42    1
    49     2    44    1
    50    28    30    1
    51    28    29    1
    52    28    31    1
    53    55    52    1
    54    52    53    1
    55    52    54    1
    56    44    47    1
    57    44    45    1
    58    44    46    1
    59     1     6    0
