@<TRIPOS>MOLECULE
1
 27 28 0 0 0
SMALL
GASTEIGER

@<TRIPOS>ATOM
      1 SI          3.8013    8.1277   10.0049 Si      1  UNL1        0.0000
      2 C           2.3016    8.9233    9.0983 C.3     1  UNL1        0.0000
      3 H           1.8237    9.6697    9.7242 H       1  UNL1        0.0000
      4 H           1.5540    8.1816    8.8401 H       1  UNL1        0.0000
      5 H           2.6157    9.4114    8.1811 H       1  UNL1        0.0000
      6 C           4.5123    6.8036    8.8276 C.ar    1  UNL1        0.0000
      7 C           3.6837    5.7907    8.3546 C.ar    1  UNL1        0.0000
      8 H           2.6426    5.7880    8.6420 H       1  UNL1        0.0000
      9 C           4.1697    4.7899    7.5340 C.ar    1  UNL1        0.0000
     10 H           3.5081    4.0140    7.1758 H       1  UNL1        0.0000
     11 C           5.5074    4.7796    7.1737 C.ar    1  UNL1        0.0000
     12 H           5.8921    3.9987    6.5337 H       1  UNL1        0.0000
     13 C           6.3490    5.7746    7.6411 C.ar    1  UNL1        0.0000
     14 H           7.3944    5.7708    7.3664 H       1  UNL1        0.0000
     15 C           5.8529    6.7726    8.4613 C.ar    1  UNL1        0.0000
     16 H           6.5178    7.5445    8.8215 H       1  UNL1        0.0000
     17 C           5.0730    9.5406   10.1802 C.ar    1  UNL1        0.0000
     18 C           5.6792   10.0852    9.0526 C.ar    1  UNL1        0.0000
     19 H           5.4266    9.6941    8.0776 H       1  UNL1        0.0000
     20 C           6.5962   11.1154    9.1598 C.ar    1  UNL1        0.0000
     21 H           7.0590   11.5219    8.2717 H       1  UNL1        0.0000
     22 C           6.9203   11.6275   10.4050 C.ar    1  UNL1        0.0000
     23 H           7.6374   12.4309   10.4922 H       1  UNL1        0.0000
     24 C           6.3151   11.1080   11.5370 C.ar    1  UNL1        0.0000
     25 H           6.5563   11.5102   12.5109 H       1  UNL1        0.0000
     26 C           5.4019   10.0757   11.4197 C.ar    1  UNL1        0.0000
     27 H           4.9229    9.6757   12.3029 H       1  UNL1        0.0000
@<TRIPOS>BOND
     1    12    11    1
     2    11     9   ar
     3    11    13   ar
     4    10     9    1
     5    14    13    1
     6     9     7   ar
     7    13    15   ar
     8    19    18    1
     9     5     2    1
    10    21    20    1
    11     7     8    1
    12     7     6   ar
    13    15    16    1
    14    15     6   ar
    15     6     1    1
    16     4     2    1
    17    18    20   ar
    18    18    17   ar
    19     2     3    1
    20     2     1    1
    21    20    22   ar
    22     1    17    1
    23    17    26   ar
    24    22    23    1
    25    22    24   ar
    26    26    24   ar
    27    26    27    1
    28    24    25    1
