@<TRIPOS>MOLECULE
1
 88 90 0 0 0
SMALL
GASTEIGER

@<TRIPOS>ATOM
      1 SI         -0.0011   12.4671   11.9367 Si      1  UNL1        0.0000
      2 N          -0.7984   13.8713   10.9585 N.3     1  UNL1        0.0000
      3 N          -1.8372   12.7603   12.4226 N.3     1  UNL1        0.0000
      4 N           0.3669   10.0708    8.7016 N.2     1  UNL1        0.0000
      5 C          -2.8175   12.1464   13.2930 C.3     1  UNL1        0.0000
      6 C          -1.9582   13.7645   11.5808 C.3     1  UNL1        0.0000
      7 C          -1.5514   10.7723    7.3953 C.ar    1  UNL1        0.0000
      8 C          -3.1546   14.5968   11.3470 C.ar    1  UNL1        0.0000
      9 C           0.6575   11.7071    6.9738 C.ar    1  UNL1        0.0000
     10 C           0.1777   10.0493    9.9537 C.2     1  UNL1        0.0000
     11 C          -2.0420   11.5329    6.3439 C.ar    1  UNL1        0.0000
     12 H          -3.0835   11.4502    6.0703 H       1  UNL1        0.0000
     13 C           1.9044    8.2312    9.9540 C.3     1  UNL1        0.0000
     14 H           1.5987    7.9411    8.9533 H       1  UNL1        0.0000
     15 H           2.2654    7.3496   10.4786 H       1  UNL1        0.0000
     16 H           2.7143    8.9471    9.8712 H       1  UNL1        0.0000
     17 C           2.1403   11.6864    7.2644 C.3     1  UNL1        0.0000
     18 H           2.2726   11.6594    8.3504 H       1  UNL1        0.0000
     19 C          -0.1919   10.8875    7.7437 C.ar    1  UNL1        0.0000
     20 C           0.7225    8.8447   10.7077 C.3     1  UNL1        0.0000
     21 C          -0.6683   11.0250   10.6935 C.3     1  UNL1        0.0000
     22 H          -1.3401   10.4429   11.3200 H       1  UNL1        0.0000
     23 H          -1.2695   11.5600    9.9567 H       1  UNL1        0.0000
     24 C           0.1235   12.4525    5.9387 C.ar    1  UNL1        0.0000
     25 H           0.7620   13.0900    5.3488 H       1  UNL1        0.0000
     26 C          -0.3491   14.8203    9.9670 C.3     1  UNL1        0.0000
     27 C          -2.4604    9.7662    8.0676 C.3     1  UNL1        0.0000
     28 H          -1.9396    9.3387    8.9266 H       1  UNL1        0.0000
     29 C          -1.2250   12.3878    5.6327 C.ar    1  UNL1        0.0000
     30 H          -1.6286   12.9807    4.8253 H       1  UNL1        0.0000
     31 C          -3.3894   15.7409   12.1038 C.ar    1  UNL1        0.0000
     32 H          -2.6883   16.0249   12.8732 H       1  UNL1        0.0000
     33 C          -3.4503   13.1516   14.2616 C.3     1  UNL1        0.0000
     34 H          -2.6781   13.6191   14.8613 H       1  UNL1        0.0000
     35 H          -4.1405   12.6322   14.9224 H       1  UNL1        0.0000
     36 H          -4.0052   13.9180   13.7277 H       1  UNL1        0.0000
     37 C          -5.4171   16.1467   10.8824 C.ar    1  UNL1        0.0000
     38 H          -6.2956   16.7481   10.7037 H       1  UNL1        0.0000
     39 C          -4.5160   16.5094   11.8699 C.ar    1  UNL1        0.0000
     40 H          -4.6901   17.3952   12.4622 H       1  UNL1        0.0000
     41 C          -5.1860   15.0117   10.1242 C.ar    1  UNL1        0.0000
     42 H          -5.8825   14.7244    9.3507 H       1  UNL1        0.0000
     43 C           1.1283   14.5103    9.7248 C.3     1  UNL1        0.0000
     44 H           1.6931   14.5619   10.6546 H       1  UNL1        0.0000
     45 H           1.5464   15.2166    9.0132 H       1  UNL1        0.0000
     46 H           1.2285   13.5083    9.3210 H       1  UNL1        0.0000
     47 C          -4.0600   14.2404   10.3527 C.ar    1  UNL1        0.0000
     48 H          -3.8797   13.3594    9.7548 H       1  UNL1        0.0000
     49 C          -2.0682   11.0882   14.1051 C.3     1  UNL1        0.0000
     50 H          -1.7876   10.2477   13.4775 H       1  UNL1        0.0000
     51 H          -2.6986   10.7141   14.9074 H       1  UNL1        0.0000
     52 H          -1.1666   11.5239   14.5258 H       1  UNL1        0.0000
     53 C           2.9003   12.8923    6.7187 C.3     1  UNL1        0.0000
     54 H           2.9478   12.8647    5.6322 H       1  UNL1        0.0000
     55 H           3.9188   12.8791    7.0979 H       1  UNL1        0.0000
     56 H           2.4312   13.8230    7.0273 H       1  UNL1        0.0000
     57 C           1.1404    9.2056   12.1317 C.3     1  UNL1        0.0000
     58 H           1.8391   10.0344   12.1368 H       1  UNL1        0.0000
     59 H           1.6140    8.3468   12.6012 H       1  UNL1        0.0000
     60 H           0.2863    9.4921   12.7352 H       1  UNL1        0.0000
     61 C          -3.7601   10.3957    8.5711 C.3     1  UNL1        0.0000
     62 H          -3.5468   11.2279    9.2385 H       1  UNL1        0.0000
     63 H          -4.3454    9.6589    9.1182 H       1  UNL1        0.0000
     64 H          -4.3667   10.7631    7.7473 H       1  UNL1        0.0000
     65 C          -0.4011    7.7941   10.7670 C.3     1  UNL1        0.0000
     66 H          -1.2802    8.1783   11.2805 H       1  UNL1        0.0000
     67 H          -0.0529    6.9164   11.3070 H       1  UNL1        0.0000
     68 H          -0.6891    7.4871    9.7643 H       1  UNL1        0.0000
     69 C           2.7322   10.3962    6.6857 C.3     1  UNL1        0.0000
     70 H           2.2282    9.5338    7.1106 H       1  UNL1        0.0000
     71 H           3.7941   10.3305    6.9135 H       1  UNL1        0.0000
     72 H           2.6067   10.3773    5.6048 H       1  UNL1        0.0000
     73 C          -0.5066   16.2632   10.4641 C.3     1  UNL1        0.0000
     74 H          -1.5523   16.5601   10.4766 H       1  UNL1        0.0000
     75 H           0.0308   16.9402    9.8052 H       1  UNL1        0.0000
     76 H          -0.1039   16.3572   11.4682 H       1  UNL1        0.0000
     77 C          -2.7601    8.6222    7.0942 C.3     1  UNL1        0.0000
     78 H          -3.2894    8.9895    6.2181 H       1  UNL1        0.0000
     79 H          -3.3740    7.8638    7.5768 H       1  UNL1        0.0000
     80 H          -1.8322    8.1607    6.7637 H       1  UNL1        0.0000
     81 C          -3.9330   11.4817   12.4696 C.3     1  UNL1        0.0000
     82 H          -4.5399   12.2305   11.9667 H       1  UNL1        0.0000
     83 H          -4.5774   10.9044   13.1278 H       1  UNL1        0.0000
     84 H          -3.5168   10.8127   11.7213 H       1  UNL1        0.0000
     85 C          -1.1214   14.6371    8.6519 C.3     1  UNL1        0.0000
     86 H          -1.0673   13.6033    8.3216 H       1  UNL1        0.0000
     87 H          -0.6850   15.2636    7.8788 H       1  UNL1        0.0000
     88 H          -2.1651   14.9167    8.7687 H       1  UNL1        0.0000
@<TRIPOS>BOND
     1    30    29    1
     2    25    24    1
     3    72    69    1
     4    54    53    1
     5    29    24   ar
     6    29    11   ar
     7    24     9   ar
     8    12    11    1
     9    78    77    1
    10    11     7   ar
    11    69    71    1
    12    69    70    1
    13    69    17    1
    14    53    56    1
    15    53    55    1
    16    53    17    1
    17    80    77    1
    18     9    17    1
    19     9    19   ar
    20    77    79    1
    21    77    27    1
    22    17    18    1
    23     7    19   ar
    24     7    27    1
    25    19     4    1
    26    64    61    1
    27    87    85    1
    28    27    61    1
    29    27    28    1
    30    86    85    1
    31    61    63    1
    32    61    62    1
    33    85    88    1
    34    85    26    1
    35     4    10    2
    36    14    13    1
    37    45    43    1
    38    46    43    1
    39    42    41    1
    40    43    26    1
    41    43    44    1
    42    48    47    1
    43    68    65    1
    44    75    73    1
    45    16    13    1
    46    10    21    1
    47    10    20    1
    48    13    15    1
    49    13    20    1
    50    23    21    1
    51    26    73    1
    52    26     2    1
    53    41    47   ar
    54    41    37   ar
    55    47     8   ar
    56    73    74    1
    57    73    76    1
    58    21    22    1
    59    21     1    1
    60    38    37    1
    61    20    65    1
    62    20    57    1
    63    65    66    1
    64    65    67    1
    65    37    39   ar
    66     2     6    1
    67     2     1    1
    68     8     6    1
    69     8    31   ar
    70     6     3    1
    71    84    81    1
    72    39    31   ar
    73    39    40    1
    74     1     3    1
    75    82    81    1
    76    31    32    1
    77    57    58    1
    78    57    59    1
    79    57    60    1
    80     3     5    1
    81    81    83    1
    82    81     5    1
    83     5    49    1
    84     5    33    1
    85    50    49    1
    86    36    33    1
    87    49    52    1
    88    49    51    1
    89    33    34    1
    90    33    35    1
