@<TRIPOS>MOLECULE
2
 19 18 0 0 0
SMALL
GASTEIGER

@<TRIPOS>ATOM
      1 CL          0.2413   -0.0436    4.7404 Cl      1  UNL1        0.0000
      2 SI          2.3206    2.7313    3.7573 Si      1  UNL1        0.0000
      3 SI          0.1205    1.9482    4.2298 Si      1  UNL1        0.0000
      4 C           3.1230    1.1758    2.9489 C.3     1  UNL1        0.0000
      5 H           2.6984    0.9855    1.9683 H       1  UNL1        0.0000
      6 H           2.9626    0.2878    3.5523 H       1  UNL1        0.0000
      7 H           4.1941    1.2947    2.8199 H       1  UNL1        0.0000
      8 C           3.3227    2.9158    5.3935 C.3     1  UNL1        0.0000
      9 H           2.8703    3.6125    6.0876 H       1  UNL1        0.0000
     10 H           4.3323    3.2568    5.1878 H       1  UNL1        0.0000
     11 H           3.3947    1.9563    5.8953 H       1  UNL1        0.0000
     12 C          -0.9456    2.0097    2.6479 C.3     1  UNL1        0.0000
     13 H          -0.5023    1.3978    1.8685 H       1  UNL1        0.0000
     14 H          -1.0184    3.0202    2.2603 H       1  UNL1        0.0000
     15 H          -1.9548    1.6433    2.8164 H       1  UNL1        0.0000
     16 C          -0.9286    2.6812    5.6586 C.3     1  UNL1        0.0000
     17 H          -0.3491    2.7756    6.5724 H       1  UNL1        0.0000
     18 H          -1.7720    2.0320    5.8807 H       1  UNL1        0.0000
     19 H          -1.3324    3.6591    5.4159 H       1  UNL1        0.0000
@<TRIPOS>BOND
     1    13    12    1
     2     5     4    1
     3    14    12    1
     4    12    15    1
     5    12     3    1
     6     7     4    1
     7     4     6    1
     8     4     2    1
     9     2     3    1
    10     2     8    1
    11     3     1    1
    12     3    16    1
    13    10     8    1
    14     8    11    1
    15     8     9    1
    16    19    16    1
    17    16    18    1
    18    16    17    1
