@<TRIPOS>MOLECULE
1
 22 21 0 0 0
SMALL
GASTEIGER

@<TRIPOS>ATOM
      1 SI          2.7160    6.4008    2.4177 Si      1  UNL1        0.0000
      2 C           2.8817    4.5042    1.9883 C.3     1  UNL1        0.0000
      3 H           3.3667    4.4257    1.0149 H       1  UNL1        0.0000
      4 H           3.5632    4.0276    2.6896 H       1  UNL1        0.0000
      5 C           1.5800    3.7106    1.9557 C.3     1  UNL1        0.0000
      6 H           1.0816    3.7355    2.9212 H       1  UNL1        0.0000
      7 H           1.7793    2.6689    1.7051 H       1  UNL1        0.0000
      8 H           0.8957    4.1113    1.2135 H       1  UNL1        0.0000
      9 C           2.4541    7.2655    0.6855 C.3     1  UNL1        0.0000
     10 H           2.1446    8.2941    0.8534 H       1  UNL1        0.0000
     11 H           3.3973    7.3105    0.1429 H       1  UNL1        0.0000
     12 C           1.4176    6.5903   -0.2050 C.3     1  UNL1        0.0000
     13 H           1.7228    5.5793   -0.4580 H       1  UNL1        0.0000
     14 H           1.2915    7.1462   -1.1343 H       1  UNL1        0.0000
     15 H           0.4537    6.5453    0.2938 H       1  UNL1        0.0000
     16 C           0.9850    6.6796    3.2756 C.3     1  UNL1        0.0000
     17 H           0.2290    6.1199    2.7279 H       1  UNL1        0.0000
     18 H           1.0002    6.2760    4.2853 H       1  UNL1        0.0000
     19 C           0.5602    8.1402    3.3449 C.3     1  UNL1        0.0000
     20 H           1.3340    8.7357    3.8214 H       1  UNL1        0.0000
     21 H          -0.3641    8.2493    3.9118 H       1  UNL1        0.0000
     22 H           0.3924    8.5384    2.3489 H       1  UNL1        0.0000
@<TRIPOS>BOND
     1    14    12    1
     2    13    12    1
     3    12    15    1
     4    12     9    1
     5    11     9    1
     6     9    10    1
     7     9     1    1
     8     3     2    1
     9     8     5    1
    10     7     5    1
    11     5     2    1
    12     5     6    1
    13     2     1    1
    14     2     4    1
    15    22    19    1
    16     1    16    1
    17    17    16    1
    18    16    19    1
    19    16    18    1
    20    19    20    1
    21    19    21    1
