@<TRIPOS>MOLECULE
2
 24 25 0 0 0
SMALL
GASTEIGER

@<TRIPOS>ATOM
      1 CL         -0.4891   18.2053   12.0099 Cl      1  UNL1        0.0000
      2 SI         -2.0684   18.2789   10.6158 Si      1  UNL1        0.0000
      3 C          -1.4086   19.7241    9.5171 C.ar    1  UNL1        0.0000
      4 C          -0.1854   19.5947    8.8658 C.ar    1  UNL1        0.0000
      5 H           0.3816   18.6855    8.9959 H       1  UNL1        0.0000
      6 C           0.3112   20.6059    8.0630 C.ar    1  UNL1        0.0000
      7 H           1.2653   20.4852    7.5690 H       1  UNL1        0.0000
      8 C          -0.4143   21.7730    7.8913 C.ar    1  UNL1        0.0000
      9 H          -0.0314   22.5649    7.2632 H       1  UNL1        0.0000
     10 C          -1.6306   21.9209    8.5356 C.ar    1  UNL1        0.0000
     11 H          -2.1998   22.8319    8.4130 H       1  UNL1        0.0000
     12 C          -2.1196   20.9057    9.3397 C.ar    1  UNL1        0.0000
     13 H          -3.0655   21.0376    9.8446 H       1  UNL1        0.0000
     14 C          -3.4278   19.1163   11.7026 C.ar    1  UNL1        0.0000
     15 C          -3.1067   20.2206   12.4866 C.ar    1  UNL1        0.0000
     16 H          -2.0903   20.5850   12.4942 H       1  UNL1        0.0000
     17 C          -4.0657   20.8534   13.2568 C.ar    1  UNL1        0.0000
     18 H          -3.7946   21.7101   13.8574 H       1  UNL1        0.0000
     19 C          -5.3712   20.3919   13.2588 C.ar    1  UNL1        0.0000
     20 H          -6.1221   20.8853   13.8596 H       1  UNL1        0.0000
     21 C          -5.7072   19.2918   12.4887 C.ar    1  UNL1        0.0000
     22 H          -6.7232   18.9219   12.4876 H       1  UNL1        0.0000
     23 C          -4.7421   18.6646   11.7209 C.ar    1  UNL1        0.0000
     24 H          -5.0073   17.8025   11.1284 H       1  UNL1        0.0000
@<TRIPOS>BOND
     1     9     8    1
     2     7     6    1
     3     8     6   ar
     4     8    10   ar
     5     6     4   ar
     6    11    10    1
     7    10    12   ar
     8     4     5    1
     9     4     3   ar
    10    12     3   ar
    11    12    13    1
    12     3     2    1
    13     2    14    1
    14     2     1    1
    15    24    23    1
    16    14    23   ar
    17    14    15   ar
    18    23    21   ar
    19    15    16    1
    20    15    17   ar
    21    22    21    1
    22    21    19   ar
    23    17    19   ar
    24    17    18    1
    25    19    20    1
