@<TRIPOS>MOLECULE
1
 34 36 0 0 0
SMALL
GASTEIGER

@<TRIPOS>ATOM
      1 SI          1.8241    5.3125   12.2505 Si      1  UNL1        0.0000
      2 C           3.5338    5.4613   11.4021 C.ar    1  UNL1        0.0000
      3 C           3.7540    6.4270   10.4223 C.ar    1  UNL1        0.0000
      4 H           2.9398    7.0703   10.1135 H       1  UNL1        0.0000
      5 C           4.9971    6.5838    9.8387 C.ar    1  UNL1        0.0000
      6 H           5.1440    7.3374    9.0786 H       1  UNL1        0.0000
      7 C           6.0513    5.7739   10.2267 C.ar    1  UNL1        0.0000
      8 H           7.0224    5.8902    9.7683 H       1  UNL1        0.0000
      9 C           5.8536    4.8170   11.2070 C.ar    1  UNL1        0.0000
     10 H           6.6728    4.1864   11.5210 H       1  UNL1        0.0000
     11 C           4.6076    4.6655   11.7893 C.ar    1  UNL1        0.0000
     12 H           4.4669    3.9232   12.5611 H       1  UNL1        0.0000
     13 C           1.7829    6.8448   13.3994 C.ar    1  UNL1        0.0000
     14 C           2.9653    7.2189   14.0354 C.ar    1  UNL1        0.0000
     15 H           3.8668    6.6558   13.8437 H       1  UNL1        0.0000
     16 C           3.0011    8.2958   14.9011 C.ar    1  UNL1        0.0000
     17 H           3.9293    8.5678   15.3823 H       1  UNL1        0.0000
     18 C           1.8507    9.0257   15.1501 C.ar    1  UNL1        0.0000
     19 H           1.8763    9.8683   15.8254 H       1  UNL1        0.0000
     20 C           0.6676    8.6691   14.5273 C.ar    1  UNL1        0.0000
     21 H          -0.2353    9.2320   14.7149 H       1  UNL1        0.0000
     22 C           0.6380    7.5900   13.6617 C.ar    1  UNL1        0.0000
     23 H          -0.2973    7.3288   13.1836 H       1  UNL1        0.0000
     24 C           1.8678    3.7965   13.4146 C.ar    1  UNL1        0.0000
     25 C           1.5007    3.9165   14.7521 C.ar    1  UNL1        0.0000
     26 H           1.1942    4.8803   15.1325 H       1  UNL1        0.0000
     27 C           1.5272    2.8224   15.5981 C.ar    1  UNL1        0.0000
     28 H           1.2385    2.9362   16.6330 H       1  UNL1        0.0000
     29 C           1.9222    1.5844   15.1206 C.ar    1  UNL1        0.0000
     30 H           1.9425    0.7290   15.7799 H       1  UNL1        0.0000
     31 C           2.2920    1.4474   13.7929 C.ar    1  UNL1        0.0000
     32 H           2.6020    0.4845   13.4133 H       1  UNL1        0.0000
     33 C           2.2614    2.5427   12.9498 C.ar    1  UNL1        0.0000
     34 H           2.5518    2.4244   11.9143 H       1  UNL1        0.0000
@<TRIPOS>BOND
     1     6     5    1
     2     8     7    1
     3     5     7   ar
     4     5     3   ar
     5     4     3    1
     6     7     9   ar
     7     3     2   ar
     8     9    10    1
     9     9    11   ar
    10     2    11   ar
    11     2     1    1
    12    11    12    1
    13    34    33    1
    14     1    13    1
    15     1    24    1
    16    33    24   ar
    17    33    31   ar
    18    23    22    1
    19    13    22   ar
    20    13    14   ar
    21    32    31    1
    22    24    25   ar
    23    22    20   ar
    24    31    29   ar
    25    15    14    1
    26    14    16   ar
    27    20    21    1
    28    20    18   ar
    29    25    26    1
    30    25    27   ar
    31    16    18   ar
    32    16    17    1
    33    29    27   ar
    34    29    30    1
    35    18    19    1
    36    27    28    1
