@<TRIPOS>MOLECULE
1
 20 20 0 0 0
SMALL
GASTEIGER

@<TRIPOS>ATOM
      1 SI          2.1552    5.9607   -3.3565 Si      1  UNL1        0.0000
      2 C           2.0465    4.5975   -4.6848 C.ar    1  UNL1        0.0000
      3 C           0.9937    3.6884   -4.6954 C.ar    1  UNL1        0.0000
      4 H           0.2025    3.7891   -3.9678 H       1  UNL1        0.0000
      5 C           0.9410    2.6595   -5.6178 C.ar    1  UNL1        0.0000
      6 H           0.1132    1.9646   -5.6061 H       1  UNL1        0.0000
      7 C           1.9507    2.5170   -6.5544 C.ar    1  UNL1        0.0000
      8 H           1.9144    1.7128   -7.2752 H       1  UNL1        0.0000
      9 C           3.0077    3.4112   -6.5605 C.ar    1  UNL1        0.0000
     10 H           3.8000    3.3058   -7.2880 H       1  UNL1        0.0000
     11 C           3.0513    4.4364   -5.6335 C.ar    1  UNL1        0.0000
     12 H           3.8813    5.1269   -5.6448 H       1  UNL1        0.0000
     13 C           0.3479    6.4563   -2.9226 C.3     1  UNL1        0.0000
     14 H           0.3016    7.4342   -2.4578 H       1  UNL1        0.0000
     15 H          -0.0914    5.7453   -2.2313 H       1  UNL1        0.0000
     16 H          -0.2721    6.4854   -3.8123 H       1  UNL1        0.0000
     17 C           3.0289    7.4653   -4.1755 C.3     1  UNL1        0.0000
     18 H           2.6424    7.6413   -5.1737 H       1  UNL1        0.0000
     19 H           4.0972    7.2969   -4.2559 H       1  UNL1        0.0000
     20 H           2.8821    8.3716   -3.5996 H       1  UNL1        0.0000
@<TRIPOS>BOND
     1    10     9    1
     2     8     7    1
     3     9     7   ar
     4     9    11   ar
     5     7     5   ar
     6    12    11    1
     7    11     2   ar
     8     5     6    1
     9     5     3   ar
    10    18    17    1
    11     3     2   ar
    12     3     4    1
    13     2     1    1
    14    19    17    1
    15    17    20    1
    16    17     1    1
    17    16    13    1
    18     1    13    1
    19    13    14    1
    20    13    15    1
