@<TRIPOS>MOLECULE
1
 34 36 0 0 0
SMALL
GASTEIGER

@<TRIPOS>ATOM
      1 SI         15.5732   12.6101    9.4962 Si      1  UNL1        0.0000
      2 C          16.8450   11.7772    8.3411 C.ar    1  UNL1        0.0000
      3 C          16.4217   11.0275    7.2486 C.ar    1  UNL1        0.0000
      4 H          15.3629   10.9357    7.0531 H       1  UNL1        0.0000
      5 C          17.3293   10.4040    6.4125 C.ar    1  UNL1        0.0000
      6 H          16.9788    9.8270    5.5687 H       1  UNL1        0.0000
      7 C          18.6881   10.5201    6.6554 C.ar    1  UNL1        0.0000
      8 H          19.3999   10.0355    6.0028 H       1  UNL1        0.0000
      9 C          19.1283   11.2610    7.7385 C.ar    1  UNL1        0.0000
     10 H          20.1868   11.3553    7.9355 H       1  UNL1        0.0000
     11 C          18.2129   11.8810    8.5705 C.ar    1  UNL1        0.0000
     12 H          18.5625   12.4565    9.4154 H       1  UNL1        0.0000
     13 C          16.5831   13.9019   10.4663 C.ar    1  UNL1        0.0000
     14 C          17.1805   14.9567    9.7832 C.ar    1  UNL1        0.0000
     15 H          17.0713   15.0088    8.7086 H       1  UNL1        0.0000
     16 C          17.9074   15.9218   10.4545 C.ar    1  UNL1        0.0000
     17 H          18.3676   16.7333    9.9083 H       1  UNL1        0.0000
     18 C          18.0464   15.8488   11.8316 C.ar    1  UNL1        0.0000
     19 H          18.6122   16.6023   12.3604 H       1  UNL1        0.0000
     20 C          17.4600   14.8044   12.5260 C.ar    1  UNL1        0.0000
     21 H          17.5695   14.7409   13.5994 H       1  UNL1        0.0000
     22 C          16.7357   13.8407   11.8455 C.ar    1  UNL1        0.0000
     23 H          16.2820   13.0240   12.3888 H       1  UNL1        0.0000
     24 C          15.0027   11.2384   10.6947 C.ar    1  UNL1        0.0000
     25 C          15.5977    9.9810   10.6769 C.ar    1  UNL1        0.0000
     26 H          16.4034    9.7898    9.9836 H       1  UNL1        0.0000
     27 C          15.1749    8.9772   11.5299 C.ar    1  UNL1        0.0000
     28 H          15.6522    8.0081   11.5000 H       1  UNL1        0.0000
     29 C          14.1406    9.2119   12.4199 C.ar    1  UNL1        0.0000
     30 H          13.8064    8.4284   13.0846 H       1  UNL1        0.0000
     31 C          13.5367   10.4578   12.4521 C.ar    1  UNL1        0.0000
     32 H          12.7279   10.6495   13.1434 H       1  UNL1        0.0000
     33 C          13.9671   11.4558   11.5973 C.ar    1  UNL1        0.0000
     34 H          13.4933   12.4240   11.6301 H       1  UNL1        0.0000
@<TRIPOS>BOND
     1     6     5    1
     2     8     7    1
     3     5     7   ar
     4     5     3   ar
     5     7     9   ar
     6     4     3    1
     7     3     2   ar
     8     9    10    1
     9     9    11   ar
    10     2    11   ar
    11     2     1    1
    12    11    12    1
    13    15    14    1
    14     1    13    1
    15     1    24    1
    16    14    16   ar
    17    14    13   ar
    18    17    16    1
    19    26    25    1
    20    16    18   ar
    21    13    22   ar
    22    25    24   ar
    23    25    27   ar
    24    24    33   ar
    25    28    27    1
    26    27    29   ar
    27    33    34    1
    28    33    31   ar
    29    18    19    1
    30    18    20   ar
    31    22    23    1
    32    22    20   ar
    33    29    31   ar
    34    29    30    1
    35    31    32    1
    36    20    21    1
