@<TRIPOS>MOLECULE
1
 34 36 0 0 0
SMALL
GASTEIGER

@<TRIPOS>ATOM
      1 SI          5.0146    2.2515    3.4170 Si      1  UNL1        0.0000
      2 C           6.3762    2.2031    4.7522 C.ar    1  UNL1        0.0000
      3 C           6.5963    1.0924    5.5561 C.ar    1  UNL1        0.0000
      4 H           5.9554    0.2286    5.4500 H       1  UNL1        0.0000
      5 C           7.6161    1.0788    6.4924 C.ar    1  UNL1        0.0000
      6 H           7.7714    0.2053    7.1099 H       1  UNL1        0.0000
      7 C           8.4371    2.1837    6.6384 C.ar    1  UNL1        0.0000
      8 H           9.2342    2.1758    7.3679 H       1  UNL1        0.0000
      9 C           8.2320    3.3008    5.8438 C.ar    1  UNL1        0.0000
     10 H           8.8704    4.1662    5.9538 H       1  UNL1        0.0000
     11 C           7.2133    3.3039    4.9096 C.ar    1  UNL1        0.0000
     12 H           7.0556    4.1717    4.2843 H       1  UNL1        0.0000
     13 C           3.9203    3.7413    3.9047 C.ar    1  UNL1        0.0000
     14 C           3.0295    4.2964    2.9923 C.ar    1  UNL1        0.0000
     15 H           2.9733    3.8860    1.9950 H       1  UNL1        0.0000
     16 C           2.2212    5.3640    3.3372 C.ar    1  UNL1        0.0000
     17 H           1.5383    5.7811    2.6110 H       1  UNL1        0.0000
     18 C           2.2889    5.9003    4.6123 C.ar    1  UNL1        0.0000
     19 H           1.6603    6.7358    4.8847 H       1  UNL1        0.0000
     20 C           3.1682    5.3602    5.5348 C.ar    1  UNL1        0.0000
     21 H           3.2275    5.7734    6.5319 H       1  UNL1        0.0000
     22 C           3.9731    4.2920    5.1811 C.ar    1  UNL1        0.0000
     23 H           4.6598    3.8796    5.9064 H       1  UNL1        0.0000
     24 C           3.8918    0.7257    3.6634 C.ar    1  UNL1        0.0000
     25 C           3.2586    0.5234    4.8860 C.ar    1  UNL1        0.0000
     26 H           3.4103    1.2389    5.6812 H       1  UNL1        0.0000
     27 C           2.4390   -0.5711    5.0931 C.ar    1  UNL1        0.0000
     28 H           1.9565   -0.7123    6.0497 H       1  UNL1        0.0000
     29 C           2.2327   -1.4850    4.0727 C.ar    1  UNL1        0.0000
     30 H           1.5919   -2.3403    4.2313 H       1  UNL1        0.0000
     31 C           2.8471   -1.2933    2.8469 C.ar    1  UNL1        0.0000
     32 H           2.6846   -1.9996    2.0451 H       1  UNL1        0.0000
     33 C           3.6675   -0.1968    2.6495 C.ar    1  UNL1        0.0000
     34 H           4.1425   -0.0435    1.6905 H       1  UNL1        0.0000
@<TRIPOS>BOND
     1    34    33    1
     2    15    14    1
     3    32    31    1
     4    17    16    1
     5    33    31   ar
     6    33    24   ar
     7    31    29   ar
     8    14    16   ar
     9    14    13   ar
    10    16    18   ar
    11     1    24    1
    12     1    13    1
    13     1     2    1
    14    24    25   ar
    15    13    22   ar
    16    29    30    1
    17    29    27   ar
    18    12    11    1
    19    18    19    1
    20    18    20   ar
    21     2    11   ar
    22     2     3   ar
    23    25    27   ar
    24    25    26    1
    25    11     9   ar
    26    27    28    1
    27    22    20   ar
    28    22    23    1
    29     4     3    1
    30    20    21    1
    31     3     5   ar
    32     9    10    1
    33     9     7   ar
    34     5     7   ar
    35     5     6    1
    36     7     8    1
