@<TRIPOS>MOLECULE
1
 4 3 0 0 0
SMALL
GASTEIGER

@<TRIPOS>ATOM
      1 SI          7.6078    3.3525    5.7682 Si      1  UNL1        0.0000
      2 CL          8.3832    1.5344    6.2457 Cl      1  UNL1        0.0000
      3 CL          7.3403    4.3732    7.5130 Cl      1  UNL1        0.0000
      4 CL          9.0631    4.3755    4.7589 Cl      1  UNL1        0.0000
@<TRIPOS>BOND
     1     4     1    1
     2     1     2    1
     3     1     3    1
