@<TRIPOS>MOLECULE
1
 4 3 0 0 0
SMALL
GASTEIGER

@<TRIPOS>ATOM
      1 SI          4.3628    1.3046    3.6479 Si      1  UNL1        0.0000
      2 CL          5.1183   -0.4688    4.2960 Cl      1  UNL1        0.0000
      3 CL          2.4278    1.4041    4.3025 Cl      1  UNL1        0.0000
      4 CL          4.2427    1.1983    1.6158 Cl      1  UNL1        0.0000
@<TRIPOS>BOND
     1     4     1    1
     2     1     2    1
     3     1     3    1
