@<TRIPOS>MOLECULE
1
 20 20 0 0 0
SMALL
GASTEIGER

@<TRIPOS>ATOM
      1 SI          8.2903    7.5793    2.4862 Si      1  UNL1        0.0000
      2 C           9.2127    7.2571    0.8339 C.3     1  UNL1        0.0000
      3 H          10.2151    7.6667    0.8848 H       1  UNL1        0.0000
      4 H           8.7179    7.7199   -0.0109 H       1  UNL1        0.0000
      5 H           9.2960    6.1941    0.6326 H       1  UNL1        0.0000
      6 C           9.3578    6.6916    3.8216 C.3     1  UNL1        0.0000
      7 H           9.3835    5.6193    3.6573 H       1  UNL1        0.0000
      8 H           8.9799    6.8675    4.8231 H       1  UNL1        0.0000
      9 H          10.3782    7.0564    3.7914 H       1  UNL1        0.0000
     10 C           6.6260    6.6432    2.4518 C.ar    1  UNL1        0.0000
     11 C           5.9035    6.4812    1.2747 C.ar    1  UNL1        0.0000
     12 H           6.3327    6.8201    0.3442 H       1  UNL1        0.0000
     13 C           4.6556    5.8854    1.2675 C.ar    1  UNL1        0.0000
     14 H           4.1150    5.7695    0.3381 H       1  UNL1        0.0000
     15 C           4.0956    5.4371    2.4523 C.ar    1  UNL1        0.0000
     16 H           3.1179    4.9761    2.4527 H       1  UNL1        0.0000
     17 C           4.8032    5.5758    3.6346 C.ar    1  UNL1        0.0000
     18 H           4.3791    5.2171    4.5628 H       1  UNL1        0.0000
     19 C           6.0520    6.1708    3.6282 C.ar    1  UNL1        0.0000
     20 H           6.5985    6.2658    4.5548 H       1  UNL1        0.0000
@<TRIPOS>BOND
     1     4     2    1
     2    14    13    1
     3    12    11    1
     4     5     2    1
     5     2     3    1
     6     2     1    1
     7    13    11   ar
     8    13    15   ar
     9    11    10   ar
    10    10     1    1
    11    10    19   ar
    12    15    16    1
    13    15    17   ar
    14     1     6    1
    15    19    17   ar
    16    19    20    1
    17    17    18    1
    18     7     6    1
    19     9     6    1
    20     6     8    1
