@<TRIPOS>MOLECULE
1
 20 20 0 0 0
SMALL
GASTEIGER

@<TRIPOS>ATOM
      1 SI          2.1118    2.1691    3.7005 Si      1  UNL1        0.0000
      2 C           3.6515    2.8436    4.5920 C.ar    1  UNL1        0.0000
      3 C           4.0725    4.1617    4.4657 C.ar    1  UNL1        0.0000
      4 H           3.5011    4.8444    3.8546 H       1  UNL1        0.0000
      5 C           5.2120    4.6161    5.1071 C.ar    1  UNL1        0.0000
      6 H           5.5237    5.6448    4.9915 H       1  UNL1        0.0000
      7 C           5.9539    3.7541    5.8960 C.ar    1  UNL1        0.0000
      8 H           6.8456    4.1053    6.3952 H       1  UNL1        0.0000
      9 C           5.5445    2.4386    6.0412 C.ar    1  UNL1        0.0000
     10 H           6.1164    1.7593    6.6579 H       1  UNL1        0.0000
     11 C           4.4067    1.9963    5.3932 C.ar    1  UNL1        0.0000
     12 H           4.0892    0.9700    5.4962 H       1  UNL1        0.0000
     13 C           1.4864    3.5060    2.4773 C.3     1  UNL1        0.0000
     14 H           0.6716    3.1152    1.8799 H       1  UNL1        0.0000
     15 H           2.2610    3.8368    1.7948 H       1  UNL1        0.0000
     16 H           1.1118    4.3779    3.0034 H       1  UNL1        0.0000
     17 C           0.7598    1.9768    5.0423 C.3     1  UNL1        0.0000
     18 H           1.0586    1.2587    5.7965 H       1  UNL1        0.0000
     19 H          -0.1727    1.6342    4.6106 H       1  UNL1        0.0000
     20 H           0.5682    2.9210    5.5411 H       1  UNL1        0.0000
@<TRIPOS>BOND
     1    15    13    1
     2    14    13    1
     3    13    16    1
     4    13     1    1
     5     1     2    1
     6     1    17    1
     7     4     3    1
     8     3     2   ar
     9     3     5   ar
    10     2    11   ar
    11    19    17    1
    12     6     5    1
    13    17    20    1
    14    17    18    1
    15     5     7   ar
    16    11    12    1
    17    11     9   ar
    18     7     9   ar
    19     7     8    1
    20     9    10    1
