@<TRIPOS>MOLECULE
1
 20 20 0 0 0
SMALL
GASTEIGER

@<TRIPOS>ATOM
      1 SI          4.0605   -0.6478    6.0670 Si      1  UNL1        0.0000
      2 C           2.5840   -1.7329    5.5500 C.ar    1  UNL1        0.0000
      3 C           1.5051   -1.8991    6.4102 C.ar    1  UNL1        0.0000
      4 H           1.5301   -1.4002    7.3688 H       1  UNL1        0.0000
      5 C           0.4156   -2.6737    6.0590 C.ar    1  UNL1        0.0000
      6 H          -0.4125   -2.7894    6.7444 H       1  UNL1        0.0000
      7 C           0.3834   -3.3010    4.8243 C.ar    1  UNL1        0.0000
      8 H          -0.4681   -3.9035    4.5418 H       1  UNL1        0.0000
      9 C           1.4492   -3.1501    3.9541 C.ar    1  UNL1        0.0000
     10 H           1.4314   -3.6374    2.9892 H       1  UNL1        0.0000
     11 C           2.5366   -2.3751    4.3187 C.ar    1  UNL1        0.0000
     12 H           3.3636   -2.2648    3.6334 H       1  UNL1        0.0000
     13 C           5.2331   -1.7716    7.0846 C.3     1  UNL1        0.0000
     14 H           5.6181   -2.5860    6.4799 H       1  UNL1        0.0000
     15 H           4.7171   -2.2071    7.9328 H       1  UNL1        0.0000
     16 H           6.0784   -1.2090    7.4627 H       1  UNL1        0.0000
     17 C           5.0191   -0.1330    4.4897 C.3     1  UNL1        0.0000
     18 H           5.7272    0.6531    4.7238 H       1  UNL1        0.0000
     19 H           4.3601    0.2374    3.7126 H       1  UNL1        0.0000
     20 H           5.5818   -0.9646    4.0789 H       1  UNL1        0.0000
@<TRIPOS>BOND
     1    10     9    1
     2    12    11    1
     3    19    17    1
     4     9    11   ar
     5     9     7   ar
     6    20    17    1
     7    11     2   ar
     8    17    18    1
     9    17     1    1
    10     8     7    1
    11     7     5   ar
    12     2     1    1
    13     2     3   ar
    14     5     3   ar
    15     5     6    1
    16     1    13    1
    17     3     4    1
    18    14    13    1
    19    13    16    1
    20    13    15    1
