@<TRIPOS>MOLECULE
1
 20 20 0 0 0
SMALL
GASTEIGER

@<TRIPOS>ATOM
      1 SI          3.3626    1.3913    9.2771 Si      1  UNL1        0.0000
      2 C           3.4839    3.2480    9.6893 C.ar    1  UNL1        0.0000
      3 C           4.5692    3.9935    9.2391 C.ar    1  UNL1        0.0000
      4 H           5.3440    3.5002    8.6750 H       1  UNL1        0.0000
      5 C           4.6698    5.3485    9.4948 C.ar    1  UNL1        0.0000
      6 H           5.5234    5.9054    9.1347 H       1  UNL1        0.0000
      7 C           3.6743    5.9944   10.2097 C.ar    1  UNL1        0.0000
      8 H           3.7468    7.0540   10.4082 H       1  UNL1        0.0000
      9 C           2.5863    5.2718   10.6672 C.ar    1  UNL1        0.0000
     10 H           1.8052    5.7678   11.2262 H       1  UNL1        0.0000
     11 C           2.4980    3.9150   10.4084 C.ar    1  UNL1        0.0000
     12 H           1.6448    3.3630   10.7737 H       1  UNL1        0.0000
     13 C           4.8282    0.5441   10.1711 C.3     1  UNL1        0.0000
     14 H           4.7236    0.6139   11.2485 H       1  UNL1        0.0000
     15 H           5.7712    1.0047    9.9039 H       1  UNL1        0.0000
     16 H           4.8871   -0.5048    9.9068 H       1  UNL1        0.0000
     17 C           1.7649    0.6891   10.0695 C.3     1  UNL1        0.0000
     18 H           1.7622   -0.3924    9.9935 H       1  UNL1        0.0000
     19 H           0.8754    1.0502    9.5665 H       1  UNL1        0.0000
     20 H           1.6862    0.9412   11.1215 H       1  UNL1        0.0000
@<TRIPOS>BOND
     1     4     3    1
     2     6     5    1
     3     3     5   ar
     4     3     2   ar
     5     1     2    1
     6     1    17    1
     7     1    13    1
     8     5     7   ar
     9    19    17    1
    10     2    11   ar
    11    15    13    1
    12    16    13    1
    13    18    17    1
    14    17    20    1
    15    13    14    1
    16     7     8    1
    17     7     9   ar
    18    11     9   ar
    19    11    12    1
    20     9    10    1
