@<TRIPOS>MOLECULE
1
 22 21 0 0 0
SMALL
GASTEIGER

@<TRIPOS>ATOM
      1 SI          2.0642   -1.6963    3.2258 Si      1  UNL1        0.0000
      2 C           3.4301   -2.7199    4.1253 C.3     1  UNL1        0.0000
      3 H           2.9597   -3.5539    4.6454 H       1  UNL1        0.0000
      4 H           4.1141   -3.1646    3.4037 H       1  UNL1        0.0000
      5 C           4.2294   -1.9074    5.1301 C.3     1  UNL1        0.0000
      6 H           4.7417   -1.0928    4.6270 H       1  UNL1        0.0000
      7 H           4.9696   -2.5229    5.6393 H       1  UNL1        0.0000
      8 H           3.5683   -1.4791    5.8790 H       1  UNL1        0.0000
      9 C           1.6369   -2.7930    1.7017 C.3     1  UNL1        0.0000
     10 H           2.5274   -2.9441    1.0925 H       1  UNL1        0.0000
     11 H           1.3444   -3.7813    2.0566 H       1  UNL1        0.0000
     12 C           0.5251   -2.2388    0.8248 C.3     1  UNL1        0.0000
     13 H          -0.3829   -2.0962    1.4030 H       1  UNL1        0.0000
     14 H           0.3019   -2.9143   -0.0003 H       1  UNL1        0.0000
     15 H           0.8093   -1.2746    0.4127 H       1  UNL1        0.0000
     16 C           0.5590   -1.6830    4.4273 C.3     1  UNL1        0.0000
     17 H           0.8962   -1.3375    5.4039 H       1  UNL1        0.0000
     18 H          -0.1765   -0.9571    4.0886 H       1  UNL1        0.0000
     19 C          -0.1241   -3.0353    4.5925 C.3     1  UNL1        0.0000
     20 H          -0.5406   -3.3717    3.6475 H       1  UNL1        0.0000
     21 H          -0.9349   -2.9740    5.3167 H       1  UNL1        0.0000
     22 H           0.5820   -3.7856    4.9386 H       1  UNL1        0.0000
@<TRIPOS>BOND
     1    14    12    1
     2    15    12    1
     3    12    13    1
     4    12     9    1
     5    10     9    1
     6     9    11    1
     7     9     1    1
     8     1     2    1
     9     1    16    1
    10     4     2    1
    11    20    19    1
    12    18    16    1
    13     2     3    1
    14     2     5    1
    15    16    19    1
    16    16    17    1
    17    19    22    1
    18    19    21    1
    19     6     5    1
    20     5     7    1
    21     5     8    1
