@<TRIPOS>MOLECULE
3
 98 99 0 0 0
SMALL
GASTEIGER

@<TRIPOS>ATOM
      1 P          -2.6272   -0.7100   16.7895 P.3     1  UNL1        0.0000
      2 H          -1.7608   -1.0482   15.7614 H       1  UNL1        0.0000
      3 SI         -2.2847   -2.7437   17.8024 Si      1  UNL1        0.0000
      4 SI         -4.4458   -0.8001   15.4584 Si      1  UNL1        0.0000
      5 F          -5.2149   -2.2467   15.6398 F       1  UNL1        0.0000
      6 C          -3.0197   -4.2399   16.8243 C.3     1  UNL1        0.0000
      7 H          -2.4789   -4.3903   15.8963 H       1  UNL1        0.0000
      8 H          -4.0662   -4.0983   16.5806 H       1  UNL1        0.0000
      9 H          -2.9299   -5.1540   17.4025 H       1  UNL1        0.0000
     10 C          -3.2458   -2.7117   19.5014 C.3     1  UNL1        0.0000
     11 C          -4.7404   -2.8641   19.2264 C.3     1  UNL1        0.0000
     12 H          -4.9589   -3.8369   18.7964 H       1  UNL1        0.0000
     13 H          -5.0858   -2.0999   18.5334 H       1  UNL1        0.0000
     14 H          -5.3091   -2.7682   20.1515 H       1  UNL1        0.0000
     15 C          -3.0163   -1.4058   20.2542 C.3     1  UNL1        0.0000
     16 H          -3.1934   -0.5517   19.6043 H       1  UNL1        0.0000
     17 H          -1.9994   -1.3515   20.6293 H       1  UNL1        0.0000
     18 H          -3.6924   -1.3341   21.1068 H       1  UNL1        0.0000
     19 C          -2.7698   -3.8704   20.3710 C.3     1  UNL1        0.0000
     20 H          -2.9624   -4.8241   19.8879 H       1  UNL1        0.0000
     21 H          -3.2862   -3.8664   21.3306 H       1  UNL1        0.0000
     22 H          -1.6992   -3.7962   20.5537 H       1  UNL1        0.0000
     23 C          -5.9300    0.3845   15.7072 C.ar    1  UNL1        0.0000
     24 C          -6.8762    0.4973   14.6768 C.ar    1  UNL1        0.0000
     25 C          -7.8499    1.4852   14.7346 C.ar    1  UNL1        0.0000
     26 H          -8.5709    1.5643   13.9337 H       1  UNL1        0.0000
     27 C          -7.9212    2.3849   15.7832 C.ar    1  UNL1        0.0000
     28 C          -7.0328    2.2189   16.8317 C.ar    1  UNL1        0.0000
     29 H          -7.0965    2.8771   17.6843 H       1  UNL1        0.0000
     30 C          -6.0640    1.2267   16.8188 C.ar    1  UNL1        0.0000
     31 C          -6.9357   -0.4702   13.5184 C.3     1  UNL1        0.0000
     32 H          -6.0920   -1.1554   13.5828 H       1  UNL1        0.0000
     33 C          -8.2124   -1.3104   13.6178 C.3     1  UNL1        0.0000
     34 H          -8.2439   -2.0410   12.8121 H       1  UNL1        0.0000
     35 H          -9.1003   -0.6865   13.5497 H       1  UNL1        0.0000
     36 H          -8.2354   -1.8401   14.5674 H       1  UNL1        0.0000
     37 C          -6.8458    0.2326   12.1635 C.3     1  UNL1        0.0000
     38 H          -5.9288    0.8132   12.1000 H       1  UNL1        0.0000
     39 H          -7.6914    0.8962   12.0007 H       1  UNL1        0.0000
     40 H          -6.8352   -0.5073   11.3658 H       1  UNL1        0.0000
     41 C          -8.9508    3.4870   15.7891 C.3     1  UNL1        0.0000
     42 H          -9.5310    3.4175   14.8619 H       1  UNL1        0.0000
     43 C          -9.9150    3.3276   16.9663 C.3     1  UNL1        0.0000
     44 H         -10.6915    4.0885   16.9240 H       1  UNL1        0.0000
     45 H          -9.3895    3.4268   17.9128 H       1  UNL1        0.0000
     46 H         -10.3869    2.3479   16.9381 H       1  UNL1        0.0000
     47 C          -8.2711    4.8574   15.8234 C.3     1  UNL1        0.0000
     48 H          -9.0145    5.6495   15.7637 H       1  UNL1        0.0000
     49 H          -7.5856    4.9601   14.9848 H       1  UNL1        0.0000
     50 H          -7.7074    4.9855   16.7442 H       1  UNL1        0.0000
     51 C          -5.2156    1.0635   18.0567 C.3     1  UNL1        0.0000
     52 H          -4.6076    0.1614   17.9415 H       1  UNL1        0.0000
     53 C          -4.2685    2.2468   18.2545 C.3     1  UNL1        0.0000
     54 H          -3.7393    2.1490   19.2002 H       1  UNL1        0.0000
     55 H          -4.8148    3.1873   18.2607 H       1  UNL1        0.0000
     56 H          -3.5328    2.2765   17.4540 H       1  UNL1        0.0000
     57 C          -6.0979    0.8566   19.2911 C.3     1  UNL1        0.0000
     58 H          -6.6511    1.7587   19.5395 H       1  UNL1        0.0000
     59 H          -5.4832    0.5904   20.1477 H       1  UNL1        0.0000
     60 H          -6.8106    0.0542   19.1145 H       1  UNL1        0.0000
     61 C          -3.7271   -0.5018   13.7124 C.ar    1  UNL1        0.0000
     62 C          -3.4623    0.8163   13.3123 C.ar    1  UNL1        0.0000
     63 C          -3.1138    1.0857   11.9978 C.ar    1  UNL1        0.0000
     64 H          -2.9254    2.1072   11.7039 H       1  UNL1        0.0000
     65 C          -3.0113    0.0790   11.0513 C.ar    1  UNL1        0.0000
     66 C          -3.1797   -1.2262   11.4788 C.ar    1  UNL1        0.0000
     67 H          -3.0510   -2.0266   10.7647 H       1  UNL1        0.0000
     68 C          -3.5064   -1.5337   12.7926 C.ar    1  UNL1        0.0000
     69 C          -3.4697    1.9645   14.2940 C.3     1  UNL1        0.0000
     70 H          -3.7717    1.5858   15.2733 H       1  UNL1        0.0000
     71 C          -2.0512    2.5198   14.4496 C.3     1  UNL1        0.0000
     72 H          -2.0421    3.3262   15.1802 H       1  UNL1        0.0000
     73 H          -1.6721    2.9063   13.5066 H       1  UNL1        0.0000
     74 H          -1.3829    1.7333   14.7948 H       1  UNL1        0.0000
     75 C          -4.4521    3.0661   13.8979 C.3     1  UNL1        0.0000
     76 H          -4.4621    3.8450   14.6576 H       1  UNL1        0.0000
     77 H          -5.4575    2.6614   13.8126 H       1  UNL1        0.0000
     78 H          -4.1769    3.5192   12.9485 H       1  UNL1        0.0000
     79 C          -2.6985    0.3850    9.6078 C.3     1  UNL1        0.0000
     80 H          -2.6751   -0.5613    9.0556 H       1  UNL1        0.0000
     81 C          -3.7905    1.2659    8.9971 C.3     1  UNL1        0.0000
     82 H          -3.5979    1.4274    7.9385 H       1  UNL1        0.0000
     83 H          -3.8267    2.2340    9.4904 H       1  UNL1        0.0000
     84 H          -4.7634    0.7912    9.1050 H       1  UNL1        0.0000
     85 C          -1.3260    1.0475    9.4725 C.3     1  UNL1        0.0000
     86 H          -1.0857    1.2067    8.4234 H       1  UNL1        0.0000
     87 H          -0.5567    0.4169    9.9129 H       1  UNL1        0.0000
     88 H          -1.3096    2.0105    9.9770 H       1  UNL1        0.0000
     89 C          -3.5705   -2.9903   13.1874 C.3     1  UNL1        0.0000
     90 H          -3.6779   -3.0554   14.2692 H       1  UNL1        0.0000
     91 C          -2.2648   -3.7059   12.8287 C.3     1  UNL1        0.0000
     92 H          -2.1311   -3.7792   11.7526 H       1  UNL1        0.0000
     93 H          -2.2713   -4.7148   13.2363 H       1  UNL1        0.0000
     94 H          -1.4129   -3.1736   13.2456 H       1  UNL1        0.0000
     95 C          -4.7643   -3.6957   12.5412 C.3     1  UNL1        0.0000
     96 H          -4.7611   -4.7507   12.8057 H       1  UNL1        0.0000
     97 H          -4.7248   -3.6107   11.4574 H       1  UNL1        0.0000
     98 H          -5.6972   -3.2601   12.8887 H       1  UNL1        0.0000
@<TRIPOS>BOND
     1    82    81    1
     2    86    85    1
     3    81    84    1
     4    81    83    1
     5    81    79    1
     6    80    79    1
     7    85    79    1
     8    85    87    1
     9    85    88    1
    10    79    65    1
    11    67    66    1
    12    65    66   ar
    13    65    63   ar
    14    40    37    1
    15    97    95    1
    16    66    68   ar
    17    64    63    1
    18    92    91    1
    19    63    62   ar
    20    39    37    1
    21    38    37    1
    22    37    31    1
    23    95    96    1
    24    95    98    1
    25    95    89    1
    26    68    89    1
    27    68    61   ar
    28    34    33    1
    29    91    89    1
    30    91    93    1
    31    91    94    1
    32    78    75    1
    33    89    90    1
    34    62    61   ar
    35    62    69    1
    36    73    71    1
    37    31    32    1
    38    31    33    1
    39    31    24    1
    40    35    33    1
    41    33    36    1
    42    61     4    1
    43    77    75    1
    44    75    69    1
    45    75    76    1
    46    26    25    1
    47    69    71    1
    48    69    70    1
    49    71    74    1
    50    71    72    1
    51    24    25   ar
    52    24    23   ar
    53    25    27   ar
    54    42    41    1
    55    49    47    1
    56     4     5    1
    57     4    23    1
    58     4     1    1
    59    23    30   ar
    60     2     1    1
    61    48    47    1
    62    27    41    1
    63    27    28   ar
    64    41    47    1
    65    41    43    1
    66    47    50    1
    67     7     6    1
    68     8     6    1
    69     1     3    1
    70    30    28   ar
    71    30    51    1
    72     6     9    1
    73     6     3    1
    74    28    29    1
    75    44    43    1
    76    46    43    1
    77    43    45    1
    78    56    53    1
    79     3    10    1
    80    52    51    1
    81    51    53    1
    82    51    57    1
    83    53    55    1
    84    53    54    1
    85    13    11    1
    86    12    11    1
    87    60    57    1
    88    11    10    1
    89    11    14    1
    90    57    58    1
    91    57    59    1
    92    10    15    1
    93    10    19    1
    94    16    15    1
    95    20    19    1
    96    15    17    1
    97    15    18    1
    98    19    22    1
    99    19    21    1
