@<TRIPOS>MOLECULE
1
 55 56 0 0 0
SMALL
GASTEIGER

@<TRIPOS>ATOM
      1 SI          1.0067    4.7046    6.6196 Si      1  UNL1        0.0000
      2 N          -0.4028    5.6738    5.8392 N.3     1  UNL1        0.0000
      3 N           1.1858    4.8158    4.7452 N.3     1  UNL1        0.0000
      4 C           0.1550    5.6340    4.6439 C.3     1  UNL1        0.0000
      5 C          -0.2875    6.3506    3.4376 C.ar    1  UNL1        0.0000
      6 C          -1.1754    5.7530    2.5488 C.ar    1  UNL1        0.0000
      7 H          -1.5508    4.7604    2.7528 H       1  UNL1        0.0000
      8 C           2.1716    4.4282    3.7536 C.3     1  UNL1        0.0000
      9 C           0.1829    7.6352    3.1824 C.ar    1  UNL1        0.0000
     10 H           0.8836    8.0930    3.8645 H       1  UNL1        0.0000
     11 C          -1.4556    6.5230    6.3597 C.3     1  UNL1        0.0000
     12 C           2.8095    5.6475    3.0763 C.3     1  UNL1        0.0000
     13 H           2.1198    6.1242    2.3847 H       1  UNL1        0.0000
     14 H           3.6892    5.3341    2.5198 H       1  UNL1        0.0000
     15 H           3.1172    6.3740    3.8235 H       1  UNL1        0.0000
     16 C          -2.6217    6.6712    5.3741 C.3     1  UNL1        0.0000
     17 H          -2.3571    7.3081    4.5349 H       1  UNL1        0.0000
     18 H          -3.4686    7.1206    5.8869 H       1  UNL1        0.0000
     19 H          -2.9275    5.6994    4.9924 H       1  UNL1        0.0000
     20 C          -1.9720    5.8615    7.6398 C.3     1  UNL1        0.0000
     21 H          -2.4427    4.9083    7.4130 H       1  UNL1        0.0000
     22 H          -2.7048    6.5034    8.1217 H       1  UNL1        0.0000
     23 H          -1.1530    5.6856    8.3298 H       1  UNL1        0.0000
     24 C           1.5291    3.5258    2.6902 C.3     1  UNL1        0.0000
     25 H           1.0979    2.6403    3.1520 H       1  UNL1        0.0000
     26 H           2.2842    3.2074    1.9760 H       1  UNL1        0.0000
     27 H           0.7495    4.0576    2.1501 H       1  UNL1        0.0000
     28 C          -0.8791    7.9023    6.7000 C.3     1  UNL1        0.0000
     29 H          -0.0648    7.7964    7.4149 H       1  UNL1        0.0000
     30 H          -1.6505    8.5333    7.1340 H       1  UNL1        0.0000
     31 H          -0.4964    8.3890    5.8064 H       1  UNL1        0.0000
     32 C           3.2600    3.6486    4.4928 C.3     1  UNL1        0.0000
     33 H           3.7851    4.3056    5.1820 H       1  UNL1        0.0000
     34 H           3.9738    3.2372    3.7839 H       1  UNL1        0.0000
     35 H           2.8252    2.8354    5.0665 H       1  UNL1        0.0000
     36 C          -0.3811    2.1564    6.6003 C.3     1  UNL1        0.0000
     37 C          -1.1202    7.7146    1.1680 C.ar    1  UNL1        0.0000
     38 H          -1.4445    8.2452    0.2856 H       1  UNL1        0.0000
     39 C          -0.2360    8.3123    2.0509 C.ar    1  UNL1        0.0000
     40 H           0.1319    9.3088    1.8583 H       1  UNL1        0.0000
     41 C          -1.5878    6.4352    1.4180 C.ar    1  UNL1        0.0000
     42 H          -2.2770    5.9662    0.7318 H       1  UNL1        0.0000
     43 C          -1.3136    2.5550    5.4599 C.3     1  UNL1        0.0000
     44 H          -1.9542    3.3754    5.7695 H       1  UNL1        0.0000
     45 H          -1.9334    1.7081    5.1758 H       1  UNL1        0.0000
     46 H          -0.7332    2.8758    4.5998 H       1  UNL1        0.0000
     47 C           0.5294    1.0052    6.1675 C.3     1  UNL1        0.0000
     48 H           1.0695    1.2720    5.2627 H       1  UNL1        0.0000
     49 H          -0.0564    0.1099    5.9775 H       1  UNL1        0.0000
     50 H           1.2526    0.7975    6.9513 H       1  UNL1        0.0000
     51 C          -1.1864    1.7587    7.8394 C.3     1  UNL1        0.0000
     52 H          -0.5088    1.4885    8.6442 H       1  UNL1        0.0000
     53 H          -1.8327    0.9137    7.6180 H       1  UNL1        0.0000
     54 H          -1.7940    2.5955    8.1724 H       1  UNL1        0.0000
     55 O           0.4587    3.2373    6.9961 O.3     1  UNL1        0.0000
@<TRIPOS>BOND
     1    38    37    1
     2    42    41    1
     3    37    41   ar
     4    37    39   ar
     5    41     6   ar
     6    40    39    1
     7    26    24    1
     8    39     9   ar
     9    27    24    1
    10    13    12    1
    11    14    12    1
    12     6     7    1
    13     6     5   ar
    14    24    25    1
    15    24     8    1
    16    12     8    1
    17    12    15    1
    18     9     5   ar
    19     9    10    1
    20     5     4    1
    21     8    32    1
    22     8     3    1
    23    34    32    1
    24    32    35    1
    25    32    33    1
    26    17    16    1
    27    46    43    1
    28     4     3    1
    29     4     2    1
    30     3     1    1
    31    19    16    1
    32    45    43    1
    33    48    47    1
    34    16    18    1
    35    16    11    1
    36    43    44    1
    37    43    36    1
    38    31    28    1
    39     2    11    1
    40     2     1    1
    41    49    47    1
    42    47    36    1
    43    47    50    1
    44    11    28    1
    45    11    20    1
    46    36    55    1
    47    36    51    1
    48     1    55    1
    49    28    30    1
    50    28    29    1
    51    21    20    1
    52    53    51    1
    53    20    22    1
    54    20    23    1
    55    51    54    1
    56    51    52    1
