@<TRIPOS>MOLECULE
1
 27 28 0 0 0
SMALL
GASTEIGER

@<TRIPOS>ATOM
      1 SI          5.0539    3.8458    6.1957 Si      1  UNL1        0.0000
      2 C           6.2310    4.6800    4.9236 C.3     1  UNL1        0.0000
      3 H           6.5813    3.9510    4.2011 H       1  UNL1        0.0000
      4 H           7.1017    5.1136    5.4030 H       1  UNL1        0.0000
      5 H           5.7173    5.4640    4.3771 H       1  UNL1        0.0000
      6 C           3.4907    3.3152    5.2347 C.ar    1  UNL1        0.0000
      7 C           3.3850    2.0557    4.6562 C.ar    1  UNL1        0.0000
      8 H           4.2029    1.3583    4.7612 H       1  UNL1        0.0000
      9 C           2.2519    1.6800    3.9577 C.ar    1  UNL1        0.0000
     10 H           2.1906    0.6950    3.5178 H       1  UNL1        0.0000
     11 C           1.1954    2.5650    3.8248 C.ar    1  UNL1        0.0000
     12 H           0.3080    2.2739    3.2816 H       1  UNL1        0.0000
     13 C           1.2822    3.8237    4.3939 C.ar    1  UNL1        0.0000
     14 H           0.4606    4.5191    4.2964 H       1  UNL1        0.0000
     15 C           2.4192    4.1907    5.0910 C.ar    1  UNL1        0.0000
     16 H           2.4775    5.1722    5.5395 H       1  UNL1        0.0000
     17 C           4.3983    5.1421    7.4339 C.ar    1  UNL1        0.0000
     18 C           3.5156    4.7412    8.4324 C.ar    1  UNL1        0.0000
     19 H           3.2137    3.7040    8.4742 H       1  UNL1        0.0000
     20 C           3.0241    5.6419    9.3585 C.ar    1  UNL1        0.0000
     21 H           2.3372    5.3117   10.1249 H       1  UNL1        0.0000
     22 C           3.4141    6.9707    9.3049 C.ar    1  UNL1        0.0000
     23 H           3.0339    7.6779   10.0279 H       1  UNL1        0.0000
     24 C           4.2917    7.3873    8.3189 C.ar    1  UNL1        0.0000
     25 H           4.5970    8.4232    8.2703 H       1  UNL1        0.0000
     26 C           4.7767    6.4780    7.3945 C.ar    1  UNL1        0.0000
     27 H           5.4574    6.8133    6.6256 H       1  UNL1        0.0000
@<TRIPOS>BOND
     1    12    11    1
     2    10     9    1
     3    11     9   ar
     4    11    13   ar
     5     9     7   ar
     6     3     2    1
     7    14    13    1
     8     5     2    1
     9    13    15   ar
    10     7     8    1
    11     7     6   ar
    12     2     4    1
    13     2     1    1
    14    15     6   ar
    15    15    16    1
    16     6     1    1
    17     1    17    1
    18    27    26    1
    19    26    17   ar
    20    26    24   ar
    21    17    18   ar
    22    25    24    1
    23    24    22   ar
    24    18    19    1
    25    18    20   ar
    26    22    20   ar
    27    22    23    1
    28    20    21    1
