@<TRIPOS>MOLECULE
1
 63 69 0 0 0
SMALL
GASTEIGER

@<TRIPOS>ATOM
      1 SI          5.0631    9.8161   14.0503 Si      1  UNL1        0.0000
      2 C           5.4100    8.7032   15.5852 C.3     1  UNL1        0.0000
      3 H           5.1809    7.6634   15.3788 H       1  UNL1        0.0000
      4 H           4.8351    9.0088   16.4547 H       1  UNL1        0.0000
      5 H           6.4629    8.7616   15.8425 H       1  UNL1        0.0000
      6 C           4.9653   11.6936   14.6110 C.3     1  UNL1        0.0000
      7 C           4.2398   12.2704   13.4115 C.2     1  UNL1        0.0000
      8 C           3.2786   11.4455   12.9497 C.2     1  UNL1        0.0000
      9 C           3.1429   10.1915   13.7928 C.3     1  UNL1        0.0000
     10 C           2.8472   10.7361   15.1680 C.ar    1  UNL1        0.0000
     11 C           1.6892   10.5770   15.9023 C.ar    1  UNL1        0.0000
     12 H           0.8807    9.9641   15.5305 H       1  UNL1        0.0000
     13 C           1.5640   11.2289   17.1218 C.ar    1  UNL1        0.0000
     14 H           0.6607   11.1078   17.7015 H       1  UNL1        0.0000
     15 C           2.5783   12.0465   17.5858 C.ar    1  UNL1        0.0000
     16 H           2.4666   12.5611   18.5289 H       1  UNL1        0.0000
     17 C           3.7328   12.2318   16.8371 C.ar    1  UNL1        0.0000
     18 H           4.5030   12.9000   17.1942 H       1  UNL1        0.0000
     19 C           3.8723   11.5704   15.6326 C.ar    1  UNL1        0.0000
     20 C           6.2767   12.2564   15.0124 C.ar    1  UNL1        0.0000
     21 C           7.0820   12.9575   14.1189 C.ar    1  UNL1        0.0000
     22 H           6.7330   13.1546   13.1181 H       1  UNL1        0.0000
     23 C           8.3343   13.4073   14.4935 C.ar    1  UNL1        0.0000
     24 H           8.9354   13.9572   13.7840 H       1  UNL1        0.0000
     25 C           8.8220   13.1499   15.7623 C.ar    1  UNL1        0.0000
     26 H           9.7993   13.5042   16.0548 H       1  UNL1        0.0000
     27 C           8.0517   12.4132   16.6454 C.ar    1  UNL1        0.0000
     28 H           8.4317   12.1798   17.6301 H       1  UNL1        0.0000
     29 C           6.7998   11.9646   16.2709 C.ar    1  UNL1        0.0000
     30 H           6.2236   11.3653   16.9599 H       1  UNL1        0.0000
     31 C           4.3772   13.6857   13.0587 C.ar    1  UNL1        0.0000
     32 C           4.4192   14.1425   11.7439 C.ar    1  UNL1        0.0000
     33 H           4.3991   13.4390   10.9287 H       1  UNL1        0.0000
     34 C           4.5117   15.4945   11.4695 C.ar    1  UNL1        0.0000
     35 H           4.5480   15.8282   10.4423 H       1  UNL1        0.0000
     36 C           4.5623   16.4174   12.4992 C.ar    1  UNL1        0.0000
     37 H           4.6363   17.4729   12.2820 H       1  UNL1        0.0000
     38 C           4.5201   15.9758   13.8113 C.ar    1  UNL1        0.0000
     39 H           4.5573   16.6876   14.6234 H       1  UNL1        0.0000
     40 C           4.4311   14.6265   14.0888 C.ar    1  UNL1        0.0000
     41 H           4.3877   14.2934   15.1139 H       1  UNL1        0.0000
     42 C           2.2763   11.8286   11.9443 C.ar    1  UNL1        0.0000
     43 C           1.0164   12.2438   12.3612 C.ar    1  UNL1        0.0000
     44 H           0.7946   12.2727   13.4182 H       1  UNL1        0.0000
     45 C           0.0632   12.6247   11.4344 C.ar    1  UNL1        0.0000
     46 H          -0.9106   12.9512   11.7697 H       1  UNL1        0.0000
     47 C           0.3546   12.5920   10.0815 C.ar    1  UNL1        0.0000
     48 H          -0.3900   12.8916    9.3587 H       1  UNL1        0.0000
     49 C           1.6032   12.1694    9.6565 C.ar    1  UNL1        0.0000
     50 H           1.8321   12.1349    8.6007 H       1  UNL1        0.0000
     51 C           2.5580   11.7878   10.5807 C.ar    1  UNL1        0.0000
     52 H           3.5241   11.4309   10.2489 H       1  UNL1        0.0000
     53 C           2.3165    9.0328   13.3703 C.ar    1  UNL1        0.0000
     54 C           2.1118    8.0099   14.3009 C.ar    1  UNL1        0.0000
     55 H           2.5190    8.1148   15.2957 H       1  UNL1        0.0000
     56 C           1.4086    6.8677   13.9735 C.ar    1  UNL1        0.0000
     57 H           1.2616    6.0967   14.7168 H       1  UNL1        0.0000
     58 C           0.8992    6.7050   12.6951 C.ar    1  UNL1        0.0000
     59 H           0.3474    5.8138   12.4356 H       1  UNL1        0.0000
     60 C           1.1156    7.6958   11.7556 C.ar    1  UNL1        0.0000
     61 H           0.7342    7.5794   10.7509 H       1  UNL1        0.0000
     62 C           1.8199    8.8416   12.0858 C.ar    1  UNL1        0.0000
     63 H           1.9732    9.5907   11.3284 H       1  UNL1        0.0000
@<TRIPOS>BOND
     1    50    49    1
     2    48    47    1
     3    49    47   ar
     4    49    51   ar
     5    47    45   ar
     6    52    51    1
     7    35    34    1
     8    51    42   ar
     9    61    60    1
    10    33    32    1
    11    63    62    1
    12    45    46    1
    13    45    43   ar
    14    34    32   ar
    15    34    36   ar
    16    32    31   ar
    17    60    62   ar
    18    60    58   ar
    19    42    43   ar
    20    42     8    1
    21    62    53   ar
    22    37    36    1
    23    43    44    1
    24    59    58    1
    25    36    38   ar
    26    58    56   ar
    27     8     7    2
    28     8     9    1
    29    31     7    1
    30    31    40   ar
    31    22    21    1
    32    53     9    1
    33    53    54   ar
    34     7     6    1
    35    24    23    1
    36     9     1    1
    37     9    10    1
    38    38    40   ar
    39    38    39    1
    40    56    54   ar
    41    56    57    1
    42     1     6    1
    43     1     2    1
    44    40    41    1
    45    21    23   ar
    46    21    20   ar
    47    54    55    1
    48    23    25   ar
    49     6    20    1
    50     6    19    1
    51    20    29   ar
    52    10    19   ar
    53    10    11   ar
    54     3     2    1
    55    12    11    1
    56     2     5    1
    57     2     4    1
    58    19    17   ar
    59    25    26    1
    60    25    27   ar
    61    11    13   ar
    62    29    27   ar
    63    29    30    1
    64    27    28    1
    65    17    18    1
    66    17    15   ar
    67    13    15   ar
    68    13    14    1
    69    15    16    1
