@<TRIPOS>MOLECULE
1
 25 25 0 0 0
SMALL
GASTEIGER

@<TRIPOS>ATOM
      1 SI          2.7532    4.5505   13.9372 Si      1  UNL1        0.0000
      2 C           4.4820    4.3494   14.7689 C.3     1  UNL1        0.0000
      3 H           4.6772    3.3209   15.0624 H       1  UNL1        0.0000
      4 H           4.5753    4.9804   15.6474 H       1  UNL1        0.0000
      5 H           5.2680    4.6452   14.0785 H       1  UNL1        0.0000
      6 C           2.5034    2.8316   13.1466 C.ar    1  UNL1        0.0000
      7 C           2.9783    2.5537   11.8604 C.ar    1  UNL1        0.0000
      8 C           3.7439    3.5860   11.0922 C.3     1  UNL1        0.0000
      9 H           4.0729    3.1908   10.1342 H       1  UNL1        0.0000
     10 H           4.6205    3.9098   11.6503 H       1  UNL1        0.0000
     11 H           3.1251    4.4604   10.9086 H       1  UNL1        0.0000
     12 C           2.7594    1.3083   11.2913 C.ar    1  UNL1        0.0000
     13 H           3.1305    1.1106   10.2951 H       1  UNL1        0.0000
     14 C           2.0816    0.3103   11.9732 C.ar    1  UNL1        0.0000
     15 C           1.8447   -1.0347   11.3579 C.3     1  UNL1        0.0000
     16 H           2.3613   -1.8070   11.9271 H       1  UNL1        0.0000
     17 H           2.2024   -1.0634   10.3319 H       1  UNL1        0.0000
     18 H           0.7820   -1.2731   11.3644 H       1  UNL1        0.0000
     19 C           1.6386    0.5812   13.2597 C.ar    1  UNL1        0.0000
     20 H           1.1242   -0.1918   13.8141 H       1  UNL1        0.0000
     21 C           1.8429    1.8183   13.8496 C.ar    1  UNL1        0.0000
     22 C           1.3298    2.0494   15.2377 C.3     1  UNL1        0.0000
     23 H           0.3419    2.5060   15.1929 H       1  UNL1        0.0000
     24 H           1.9814    2.7138   15.8001 H       1  UNL1        0.0000
     25 H           1.2396    1.1086   15.7765 H       1  UNL1        0.0000
@<TRIPOS>BOND
     1     9     8    1
     2    13    12    1
     3    17    15    1
     4    11     8    1
     5     8    10    1
     6     8     7    1
     7    12     7   ar
     8    12    14   ar
     9    15    18    1
    10    15    16    1
    11    15    14    1
    12     7     6   ar
    13    14    19   ar
    14     6    21   ar
    15     6     1    1
    16    19    20    1
    17    19    21   ar
    18    21    22    1
    19     1     2    1
    20     5     2    1
    21     2     3    1
    22     2     4    1
    23    23    22    1
    24    22    25    1
    25    22    24    1
