@<TRIPOS>MOLECULE
1
 16 16 0 0 0
SMALL
GASTEIGER

@<TRIPOS>ATOM
      1 SI          1.5354   10.5884    3.2625 Si      1  UNL1        0.0000
      2 C           1.4049   11.9574    1.9195 C.3     1  UNL1        0.0000
      3 H           0.5458   11.7783    1.2775 H       1  UNL1        0.0000
      4 H           2.2841   11.9830    1.2832 H       1  UNL1        0.0000
      5 H           1.2785   12.9426    2.3613 H       1  UNL1        0.0000
      6 C           0.3821   11.2550    4.6236 C.ar    1  UNL1        0.0000
      7 C          -0.7249   10.5237    5.0465 C.ar    1  UNL1        0.0000
      8 H          -0.9398    9.5767    4.5734 H       1  UNL1        0.0000
      9 C          -1.5481   10.9903    6.0547 C.ar    1  UNL1        0.0000
     10 H          -2.4058   10.4103    6.3635 H       1  UNL1        0.0000
     11 C          -1.2699   12.1981    6.6725 C.ar    1  UNL1        0.0000
     12 H          -1.9073   12.5624    7.4647 H       1  UNL1        0.0000
     13 C          -0.1691   12.9361    6.2706 C.ar    1  UNL1        0.0000
     14 H           0.0551   13.8776    6.7512 H       1  UNL1        0.0000
     15 C           0.6438   12.4692    5.2541 C.ar    1  UNL1        0.0000
     16 H           1.5021   13.0519    4.9500 H       1  UNL1        0.0000
@<TRIPOS>BOND
     1     3     2    1
     2     4     2    1
     3     2     5    1
     4     2     1    1
     5     1     6    1
     6     8     7    1
     7     6     7   ar
     8     6    15   ar
     9    16    15    1
    10     7     9   ar
    11    15    13   ar
    12     9    10    1
    13     9    11   ar
    14    13    11   ar
    15    13    14    1
    16    11    12    1
