@<TRIPOS>MOLECULE
1
 17 17 0 0 0
SMALL
GASTEIGER

@<TRIPOS>ATOM
      1 SI          7.6588    8.3889    3.0644 Si      1  UNL1        0.0000
      2 SI          6.1356    5.6479    2.2710 Si      1  UNL1        0.0000
      3 SI          6.2227    6.5732    5.3069 Si      1  UNL1        0.0000
      4 C           7.1471    7.1416    1.6797 C.3     1  UNL1        0.0000
      5 C           6.5966    5.1841    4.0551 C.3     1  UNL1        0.0000
      6 C           6.3428    8.2708    4.4660 C.3     1  UNL1        0.0000
      7 CL          9.3934    7.6487    3.8877 Cl      1  UNL1        0.0000
      8 CL          6.4854    4.0575    1.0584 Cl      1  UNL1        0.0000
      9 CL          4.1692    6.1227    2.1790 Cl      1  UNL1        0.0000
     10 CL          7.5421    6.4681    6.8361 Cl      1  UNL1        0.0000
     11 CL          4.3508    6.3044    6.0345 Cl      1  UNL1        0.0000
     12 H           8.0485    6.7926    1.1825 H       1  UNL1        0.0000
     13 H           6.5759    7.6836    0.9290 H       1  UNL1        0.0000
     14 H           6.0757    4.2737    4.3508 H       1  UNL1        0.0000
     15 H           7.6594    4.9507    4.0912 H       1  UNL1        0.0000
     16 H           5.3763    8.5256    4.0373 H       1  UNL1        0.0000
     17 H           6.5519    9.0341    5.2128 H       1  UNL1        0.0000
@<TRIPOS>BOND
     1    13     4    1
     2     8     2    1
     3    12     4    1
     4     4     2    1
     5     4     1    1
     6     9     2    1
     7     2     5    1
     8     1     7    1
     9     1     6    1
    10    16     6    1
    11     5    15    1
    12     5    14    1
    13     5     3    1
    14     6    17    1
    15     6     3    1
    16     3    11    1
    17     3    10    1
