@<TRIPOS>MOLECULE
1
 22 21 0 0 0
SMALL
GASTEIGER

@<TRIPOS>ATOM
      1 SI          0.2194    3.1090    5.1603 Si      1  UNL1        0.0000
      2 SI         -0.9687    5.1663    5.3410 Si      1  UNL1        0.0000
      3 C           1.9383    3.2191    6.0318 C.3     1  UNL1        0.0000
      4 C          -0.7597    1.8880    6.2864 C.3     1  UNL1        0.0000
      5 C          -0.6400    6.4328    3.9457 C.3     1  UNL1        0.0000
      6 C          -0.5262    6.0306    6.9937 C.3     1  UNL1        0.0000
      7 C          -2.8474    4.8179    5.3325 C.3     1  UNL1        0.0000
      8 H           2.4802    2.2829    5.9430 H       1  UNL1        0.0000
      9 H           2.5624    4.0019    5.6162 H       1  UNL1        0.0000
     10 H           1.8130    3.4276    7.0891 H       1  UNL1        0.0000
     11 H          -0.2194    0.9605    6.4447 H       1  UNL1        0.0000
     12 H          -0.9522    2.3240    7.2620 H       1  UNL1        0.0000
     13 H          -1.7175    1.6355    5.8444 H       1  UNL1        0.0000
     14 H          -1.1865    7.3555    4.1192 H       1  UNL1        0.0000
     15 H           0.4108    6.6917    3.8666 H       1  UNL1        0.0000
     16 H          -0.9592    6.0436    2.9849 H       1  UNL1        0.0000
     17 H          -1.0915    6.9475    7.1372 H       1  UNL1        0.0000
     18 H          -0.7344    5.3833    7.8402 H       1  UNL1        0.0000
     19 H           0.5279    6.2875    7.0331 H       1  UNL1        0.0000
     20 H          -3.4345    5.7307    5.3847 H       1  UNL1        0.0000
     21 H          -3.1364    4.2941    4.4266 H       1  UNL1        0.0000
     22 H          -3.1360    4.1943    6.1723 H       1  UNL1        0.0000
@<TRIPOS>BOND
     1    16     5    1
     2    15     5    1
     3     5    14    1
     4     5     2    1
     5    21     7    1
     6     1     2    1
     7     1     3    1
     8     1     4    1
     9     7     2    1
    10     7    20    1
    11     7    22    1
    12     2     6    1
    13     9     3    1
    14    13     4    1
    15     8     3    1
    16     3    10    1
    17     4    11    1
    18     4    12    1
    19     6    19    1
    20     6    17    1
    21     6    18    1
