@<TRIPOS>MOLECULE
1
 13 12 0 0 0
SMALL
GASTEIGER

@<TRIPOS>ATOM
      1 SI         -1.3537   -2.0991    3.1712 Si      1  UNL1        0.0000
      2 C          -3.0419   -3.0133    3.0859 C.3     1  UNL1        0.0000
      3 C          -0.3556   -2.6864    1.6328 C.3     1  UNL1        0.0000
      4 C          -0.4947   -2.7228    4.7778 C.3     1  UNL1        0.0000
      5 H          -2.9023   -4.0892    3.0606 H       1  UNL1        0.0000
      6 H          -3.6593   -2.7808    3.9464 H       1  UNL1        0.0000
      7 H          -3.5975   -2.7314    2.1985 H       1  UNL1        0.0000
      8 H          -0.3336   -3.7701    1.5857 H       1  UNL1        0.0000
      9 H          -0.8151   -2.3255    0.7191 H       1  UNL1        0.0000
     10 H           0.6700   -2.3367    1.6457 H       1  UNL1        0.0000
     11 H          -0.5207   -3.8062    4.8268 H       1  UNL1        0.0000
     12 H           0.5427   -2.4156    4.8378 H       1  UNL1        0.0000
     13 H          -1.0034   -2.3403    5.6560 H       1  UNL1        0.0000
@<TRIPOS>BOND
     1     9     3    1
     2     8     3    1
     3     3    10    1
     4     3     1    1
     5     7     2    1
     6     5     2    1
     7     2     1    1
     8     2     6    1
     9     1     4    1
    10     4    11    1
    11     4    12    1
    12     4    13    1
