@<TRIPOS>MOLECULE
1
 13 12 0 0 0
SMALL
GASTEIGER

@<TRIPOS>ATOM
      1 SI         -3.6478    3.9035    7.4250 Si      1  UNL1        0.0000
      2 C          -3.9989    3.1077    5.7094 C.3     1  UNL1        0.0000
      3 C          -1.8905    4.6677    7.2105 C.3     1  UNL1        0.0000
      4 C          -4.9130    5.3539    7.4829 C.3     1  UNL1        0.0000
      5 H          -4.1612    3.8845    4.9696 H       1  UNL1        0.0000
      6 H          -3.1747    2.4948    5.3657 H       1  UNL1        0.0000
      7 H          -4.8861    2.4868    5.7326 H       1  UNL1        0.0000
      8 H          -1.9566    5.5800    6.6276 H       1  UNL1        0.0000
      9 H          -1.4201    4.9141    8.1548 H       1  UNL1        0.0000
     10 H          -1.2401    3.9867    6.6723 H       1  UNL1        0.0000
     11 H          -4.9328    5.8815    6.5352 H       1  UNL1        0.0000
     12 H          -5.9113    4.9743    7.6689 H       1  UNL1        0.0000
     13 H          -4.6858    6.0775    8.2560 H       1  UNL1        0.0000
@<TRIPOS>BOND
     1     5     2    1
     2     6     2    1
     3     2     7    1
     4     2     1    1
     5    11     4    1
     6     8     3    1
     7    10     3    1
     8     3     1    1
     9     3     9    1
    10     1     4    1
    11     4    12    1
    12     4    13    1
