@<TRIPOS>MOLECULE
1
 31 30 0 0 0
SMALL
GASTEIGER

@<TRIPOS>ATOM
      1 SI         -0.1843    5.8112    1.2475 Si      1  UNL1        0.0000
      2 SI         -1.4598    6.0842   -0.7657 Si      1  UNL1        0.0000
      3 SI         -1.4263    6.5228    3.1727 Si      1  UNL1        0.0000
      4 C           1.0306    7.2965    1.0296 C.3     1  UNL1        0.0000
      5 C          -1.7234    8.4171    3.1721 C.3     1  UNL1        0.0000
      6 C          -3.1764    5.7406    3.2604 C.3     1  UNL1        0.0000
      7 C          -0.5524    6.1490    4.8345 C.3     1  UNL1        0.0000
      8 C          -2.7793    7.4383   -0.4557 C.3     1  UNL1        0.0000
      9 C          -0.4304    6.7725   -2.2332 C.3     1  UNL1        0.0000
     10 C          -2.4614    4.5816   -1.4139 C.3     1  UNL1        0.0000
     11 H           1.7490    7.3519    1.8389 H       1  UNL1        0.0000
     12 H           1.5881    7.2428    0.1026 H       1  UNL1        0.0000
     13 H           0.4767    8.2291    1.0200 H       1  UNL1        0.0000
     14 H          -2.2667    8.7420    4.0556 H       1  UNL1        0.0000
     15 H          -0.7822    8.9569    3.1525 H       1  UNL1        0.0000
     16 H          -2.2973    8.7271    2.3053 H       1  UNL1        0.0000
     17 H          -3.7609    6.1757    4.0657 H       1  UNL1        0.0000
     18 H          -3.7270    5.9043    2.3398 H       1  UNL1        0.0000
     19 H          -3.1428    4.6705    3.4303 H       1  UNL1        0.0000
     20 H          -1.1959    6.3358    5.6904 H       1  UNL1        0.0000
     21 H          -0.2210    5.1175    4.8887 H       1  UNL1        0.0000
     22 H           0.3306    6.7698    4.9459 H       1  UNL1        0.0000
     23 H          -3.3788    7.6306   -1.3415 H       1  UNL1        0.0000
     24 H          -3.4594    7.1595    0.3423 H       1  UNL1        0.0000
     25 H          -2.3104    8.3747   -0.1713 H       1  UNL1        0.0000
     26 H          -1.0298    6.8892   -3.1326 H       1  UNL1        0.0000
     27 H          -0.0344    7.7500   -1.9775 H       1  UNL1        0.0000
     28 H           0.4179    6.1461   -2.4855 H       1  UNL1        0.0000
     29 H          -2.8950    4.7886   -2.3887 H       1  UNL1        0.0000
     30 H          -1.8617    3.6839   -1.5105 H       1  UNL1        0.0000
     31 H          -3.2832    4.3520   -0.7428 H       1  UNL1        0.0000
@<TRIPOS>BOND
     1    26     9    1
     2    28     9    1
     3    29    10    1
     4     9    27    1
     5     9     2    1
     6    30    10    1
     7    10     2    1
     8    10    31    1
     9    23     8    1
    10     2     8    1
    11     2     1    1
    12     8    25    1
    13     8    24    1
    14    12     4    1
    15    13     4    1
    16     4     1    1
    17     4    11    1
    18     1     3    1
    19    16     5    1
    20    18     6    1
    21    15     5    1
    22     5     3    1
    23     5    14    1
    24     3     6    1
    25     3     7    1
    26     6    19    1
    27     6    17    1
    28     7    21    1
    29     7    22    1
    30     7    20    1
