@<TRIPOS>MOLECULE
1
 31 30 0 0 0
SMALL
GASTEIGER

@<TRIPOS>ATOM
      1 SI          3.1582    0.0156    5.2119 Si      1  UNL1        0.0000
      2 SI          5.1173   -1.3397    5.0205 Si      1  UNL1        0.0000
      3 SI          3.2216    1.9464    6.6178 Si      1  UNL1        0.0000
      4 C           1.9291   -1.1500    6.1394 C.3     1  UNL1        0.0000
      5 C           5.4778   -2.2109    6.6878 C.3     1  UNL1        0.0000
      6 C           6.7044   -0.3607    4.5824 C.3     1  UNL1        0.0000
      7 C           4.8838   -2.6874    3.6837 C.3     1  UNL1        0.0000
      8 C           4.7575    3.0509    6.3192 C.3     1  UNL1        0.0000
      9 C           3.2877    1.4237    8.4594 C.3     1  UNL1        0.0000
     10 C           1.6673    3.0333    6.3716 C.3     1  UNL1        0.0000
     11 H           0.9582   -0.6828    6.2656 H       1  UNL1        0.0000
     12 H           1.7723   -2.0751    5.5951 H       1  UNL1        0.0000
     13 H           2.2982   -1.4094    7.1262 H       1  UNL1        0.0000
     14 H           6.3560   -2.8485    6.6344 H       1  UNL1        0.0000
     15 H           5.6485   -1.4859    7.4780 H       1  UNL1        0.0000
     16 H           4.6414   -2.8324    6.9908 H       1  UNL1        0.0000
     17 H           7.5883   -0.9849    4.6765 H       1  UNL1        0.0000
     18 H           6.6821    0.0124    3.5642 H       1  UNL1        0.0000
     19 H           6.8404    0.4901    5.2428 H       1  UNL1        0.0000
     20 H           5.7866   -3.2678    3.5139 H       1  UNL1        0.0000
     21 H           4.0984   -3.3796    3.9699 H       1  UNL1        0.0000
     22 H           4.5900   -2.2467    2.7358 H       1  UNL1        0.0000
     23 H           4.8243    3.8418    7.0608 H       1  UNL1        0.0000
     24 H           5.6759    2.4753    6.3795 H       1  UNL1        0.0000
     25 H           4.7301    3.5264    5.3446 H       1  UNL1        0.0000
     26 H           3.3110    2.2805    9.1273 H       1  UNL1        0.0000
     27 H           2.4207    0.8274    8.7243 H       1  UNL1        0.0000
     28 H           4.1699    0.8254    8.6651 H       1  UNL1        0.0000
     29 H           1.7144    3.9613    6.9356 H       1  UNL1        0.0000
     30 H           1.5323    3.2883    5.3249 H       1  UNL1        0.0000
     31 H           0.7745    2.5029    6.6874 H       1  UNL1        0.0000
@<TRIPOS>BOND
     1    22     7    1
     2    20     7    1
     3    18     6    1
     4     7    21    1
     5     7     2    1
     6     6    17    1
     7     6     2    1
     8     6    19    1
     9     2     1    1
    10     2     5    1
    11     1     4    1
    12     1     3    1
    13    30    10    1
    14    25     8    1
    15    12     4    1
    16     4    11    1
    17     4    13    1
    18     8    24    1
    19     8     3    1
    20     8    23    1
    21    10     3    1
    22    10    31    1
    23    10    29    1
    24     3     9    1
    25    14     5    1
    26     5    16    1
    27     5    15    1
    28     9    28    1
    29     9    27    1
    30     9    26    1
