@<TRIPOS>MOLECULE
1
 13 12 0 0 0
SMALL
GASTEIGER

@<TRIPOS>ATOM
      1 SI          2.6067    3.2298    3.3561 Si      1  UNL1        0.0000
      2 C           4.1487    3.0660    2.2079 C.3     1  UNL1        0.0000
      3 C           2.9307    4.8285    4.3982 C.3     1  UNL1        0.0000
      4 C           2.7673    1.7549    4.5968 C.3     1  UNL1        0.0000
      5 H           5.0643    3.0437    2.7898 H       1  UNL1        0.0000
      6 H           4.1077    2.1548    1.6196 H       1  UNL1        0.0000
      7 H           4.2171    3.8989    1.5156 H       1  UNL1        0.0000
      8 H           2.1835    4.9834    5.1706 H       1  UNL1        0.0000
      9 H           3.8971    4.7648    4.8880 H       1  UNL1        0.0000
     10 H           2.9403    5.7121    3.7675 H       1  UNL1        0.0000
     11 H           2.0914    1.8450    5.4414 H       1  UNL1        0.0000
     12 H           2.5642    0.8065    4.1089 H       1  UNL1        0.0000
     13 H           3.7769    1.7109    4.9922 H       1  UNL1        0.0000
@<TRIPOS>BOND
     1     7     2    1
     2     6     2    1
     3     2     5    1
     4     2     1    1
     5     1     3    1
     6     1     4    1
     7    10     3    1
     8    12     4    1
     9     3     9    1
    10     3     8    1
    11     4    13    1
    12     4    11    1
