@<TRIPOS>MOLECULE
1
 13 12 0 0 0
SMALL
GASTEIGER

@<TRIPOS>ATOM
      1 SI          0.8618    4.4125    3.7825 Si      1  UNL1        0.0000
      2 C           0.8601    5.3888    5.4398 C.3     1  UNL1        0.0000
      3 H           1.6219    6.1592    5.4491 H       1  UNL1        0.0000
      4 H           1.0357    4.7382    6.2867 H       1  UNL1        0.0000
      5 H          -0.0996    5.8717    5.5868 H       1  UNL1        0.0000
      6 C           0.1442    5.7373    2.5737 C.3     1  UNL1        0.0000
      7 H          -0.8369    6.0433    2.9207 H       1  UNL1        0.0000
      8 H           0.0244    5.3502    1.5664 H       1  UNL1        0.0000
      9 H           0.7659    6.6259    2.5349 H       1  UNL1        0.0000
     10 C          -0.6237    3.1883    3.9194 C.3     1  UNL1        0.0000
     11 H          -1.2287    3.4534    4.7787 H       1  UNL1        0.0000
     12 H          -0.3087    2.1601    4.0448 H       1  UNL1        0.0000
     13 H          -1.2581    3.2403    3.0425 H       1  UNL1        0.0000
@<TRIPOS>BOND
     1     8     6    1
     2     9     6    1
     3     6     7    1
     4     6     1    1
     5    13    10    1
     6     1    10    1
     7     1     2    1
     8    10    12    1
     9    10    11    1
    10     2     3    1
    11     2     5    1
    12     2     4    1
