@<TRIPOS>MOLECULE
2
 38 37 0 0 0
SMALL
GASTEIGER

@<TRIPOS>ATOM
      1 P          -2.0273   15.5765    6.2569 P.3     1  UNL1        0.0000
      2 SI         -0.1336   15.8473    3.1342 Si      1  UNL1        0.0000
      3 O          -1.4649   15.8331    4.9123 O.2     1  UNL1        0.0000
      4 N          -3.5060   14.7619    6.2655 N.3     1  UNL1        0.0000
      5 N          -1.0535   14.5467    7.1536 N.3     1  UNL1        0.0000
      6 N          -2.3883   17.0288    7.0104 N.3     1  UNL1        0.0000
      7 C          -1.5807   15.0732    2.1090 C.3     1  UNL1        0.0000
      8 C           0.8752   14.2840    3.6551 C.3     1  UNL1        0.0000
      9 C          -4.6267   15.5206    5.7412 C.3     1  UNL1        0.0000
     10 C          -3.4329   13.4353    5.6779 C.3     1  UNL1        0.0000
     11 C           0.3655   14.8434    7.1573 C.3     1  UNL1        0.0000
     12 C          -1.5198   13.9406    8.3812 C.3     1  UNL1        0.0000
     13 C          -2.9366   17.0203    8.3483 C.3     1  UNL1        0.0000
     14 C          -1.5970   18.1983    6.6940 C.3     1  UNL1        0.0000
     15 H          -1.8335   14.0746    2.4570 H       1  UNL1        0.0000
     16 H          -1.3043   14.9990    1.0603 H       1  UNL1        0.0000
     17 H          -2.4791   15.6803    2.1699 H       1  UNL1        0.0000
     18 H           1.7811   14.5591    4.1876 H       1  UNL1        0.0000
     19 H           1.1767   13.7265    2.7721 H       1  UNL1        0.0000
     20 H           0.2929   13.6216    4.2899 H       1  UNL1        0.0000
     21 H          -4.6221   15.5552    4.6459 H       1  UNL1        0.0000
     22 H          -4.5837   16.5379    6.1215 H       1  UNL1        0.0000
     23 H          -5.5557   15.0504    6.0710 H       1  UNL1        0.0000
     24 H          -4.2873   12.8470    6.0198 H       1  UNL1        0.0000
     25 H          -2.5111   12.9516    5.9914 H       1  UNL1        0.0000
     26 H          -3.4491   13.4751    4.5833 H       1  UNL1        0.0000
     27 H           0.6591   15.4232    8.0388 H       1  UNL1        0.0000
     28 H           0.6143   15.4139    6.2668 H       1  UNL1        0.0000
     29 H           0.9317   13.9092    7.1550 H       1  UNL1        0.0000
     30 H          -1.0596   12.9542    8.4855 H       1  UNL1        0.0000
     31 H          -2.5997   13.8243    8.3451 H       1  UNL1        0.0000
     32 H          -1.2509   14.5343    9.2619 H       1  UNL1        0.0000
     33 H          -2.1575   17.1042    9.1143 H       1  UNL1        0.0000
     34 H          -3.4948   16.0998    8.5020 H       1  UNL1        0.0000
     35 H          -3.6162   17.8695    8.4630 H       1  UNL1        0.0000
     36 H          -2.2435   19.0800    6.6950 H       1  UNL1        0.0000
     37 H          -1.1606   18.0696    5.7043 H       1  UNL1        0.0000
     38 H          -0.7875   18.3572    7.4138 H       1  UNL1        0.0000
@<TRIPOS>BOND
     1    16     7    1
     2     7    17    1
     3     7    15    1
     4     7     2    1
     5    19     8    1
     6     2     8    1
     7     8    18    1
     8     8    20    1
     9    26    10    1
    10    21     9    1
    11     3     1    2
    12    10    25    1
    13    10    24    1
    14    10     4    1
    15    37    14    1
    16     9    23    1
    17     9    22    1
    18     9     4    1
    19     1     4    1
    20     1     6    1
    21     1     5    1
    22    28    11    1
    23    14    36    1
    24    14     6    1
    25    14    38    1
    26     6    13    1
    27     5    11    1
    28     5    12    1
    29    29    11    1
    30    11    27    1
    31    31    12    1
    32    13    35    1
    33    13    34    1
    34    13    33    1
    35    12    30    1
    36    12    32    1
    37     2     3    0
