@<TRIPOS>MOLECULE
1
 13 12 0 0 0
SMALL
GASTEIGER

@<TRIPOS>ATOM
      1 SI          2.8323   19.4083    3.2603 Si      1  UNL1        0.0000
      2 C           3.4062   20.2920    1.6472 C.3     1  UNL1        0.0000
      3 C           4.3669   18.3753    3.7946 C.3     1  UNL1        0.0000
      4 C           2.7216   20.7936    4.6006 C.3     1  UNL1        0.0000
      5 H           2.7039   21.0462    1.3081 H       1  UNL1        0.0000
      6 H           3.5342   19.5752    0.8428 H       1  UNL1        0.0000
      7 H           4.3613   20.7838    1.8039 H       1  UNL1        0.0000
      8 H           4.5877   17.5998    3.0693 H       1  UNL1        0.0000
      9 H           4.2011   17.8919    4.7514 H       1  UNL1        0.0000
     10 H           5.2478   19.0029    3.8881 H       1  UNL1        0.0000
     11 H           3.6773   21.2982    4.7046 H       1  UNL1        0.0000
     12 H           2.4659   20.3724    5.5676 H       1  UNL1        0.0000
     13 H           1.9791   21.5493    4.3655 H       1  UNL1        0.0000
@<TRIPOS>BOND
     1     6     2    1
     2     5     2    1
     3     2     7    1
     4     2     1    1
     5     8     3    1
     6     1     3    1
     7     1     4    1
     8     3    10    1
     9     3     9    1
    10    13     4    1
    11     4    11    1
    12     4    12    1
