@<TRIPOS>MOLECULE
1
 36 38 0 0 0
SMALL
GASTEIGER

@<TRIPOS>ATOM
      1 SI          0.8103    4.0847    3.0284 Si      1  UNL1        0.0000
      2 O          -0.2122    4.5691    4.1953 O.3     1  UNL1        0.0000
      3 O           1.1841    5.4525    2.1462 O.3     1  UNL1        0.0000
      4 O           2.3395    3.9212    3.6861 O.3     1  UNL1        0.0000
      5 N          -2.6336    6.3213    3.0010 N.3     1  UNL1        0.0000
      6 C          -1.3272    4.0165    4.7190 C.ar    1  UNL1        0.0000
      7 C          -1.3524    2.6820    5.0945 C.ar    1  UNL1        0.0000
      8 C          -2.4926    2.1423    5.6633 C.ar    1  UNL1        0.0000
      9 C          -3.6087    2.9358    5.8632 C.ar    1  UNL1        0.0000
     10 C          -3.5818    4.2685    5.4871 C.ar    1  UNL1        0.0000
     11 C          -2.4524    4.8257    4.9073 C.ar    1  UNL1        0.0000
     12 C          -2.4049    6.2560    4.4425 C.3     1  UNL1        0.0000
     13 C          -2.0352    7.4982    2.4049 C.3     1  UNL1        0.0000
     14 C          -4.0409    6.2061    2.6812 C.3     1  UNL1        0.0000
     15 C           2.5104    5.7081    2.2564 C.ar    1  UNL1        0.0000
     16 C           3.1976    6.7078    1.6051 C.ar    1  UNL1        0.0000
     17 C           4.5637    6.8235    1.8355 C.ar    1  UNL1        0.0000
     18 C           5.2132    5.9606    2.6983 C.ar    1  UNL1        0.0000
     19 C           4.5186    4.9546    3.3600 C.ar    1  UNL1        0.0000
     20 C           3.1661    4.8371    3.1294 C.ar    1  UNL1        0.0000
     21 H          -0.4656    2.0906    4.9375 H       1  UNL1        0.0000
     22 H          -2.5049    1.1024    5.9528 H       1  UNL1        0.0000
     23 H          -4.4977    2.5200    6.3129 H       1  UNL1        0.0000
     24 H          -4.4506    4.8897    5.6521 H       1  UNL1        0.0000
     25 H          -1.4064    6.6486    4.6420 H       1  UNL1        0.0000
     26 H          -3.1404    6.8634    4.9957 H       1  UNL1        0.0000
     27 H          -2.4301    8.4374    2.8215 H       1  UNL1        0.0000
     28 H          -2.2298    7.4875    1.3329 H       1  UNL1        0.0000
     29 H          -0.9578    7.4626    2.5596 H       1  UNL1        0.0000
     30 H          -4.6360    7.0416    3.0828 H       1  UNL1        0.0000
     31 H          -4.4245    5.2733    3.0922 H       1  UNL1        0.0000
     32 H          -4.1626    6.1828    1.5987 H       1  UNL1        0.0000
     33 H           2.6820    7.3762    0.9340 H       1  UNL1        0.0000
     34 H           5.1203    7.5980    1.3300 H       1  UNL1        0.0000
     35 H           6.2748    6.0645    2.8630 H       1  UNL1        0.0000
     36 H           5.0154    4.2765    4.0348 H       1  UNL1        0.0000
@<TRIPOS>BOND
     1    33    16    1
     2    34    17    1
     3    28    13    1
     4    32    14    1
     5    16    17   ar
     6    16    15   ar
     7    17    18   ar
     8     3    15    1
     9     3     1    1
    10    15    20   ar
    11    13    29    1
    12    13    27    1
    13    13     5    1
    14    14     5    1
    15    14    30    1
    16    14    31    1
    17    18    35    1
    18    18    19   ar
    19     5    12    1
    20     1     4    1
    21     1     2    1
    22    20    19   ar
    23    20     4    1
    24    19    36    1
    25     2     6    1
    26    12    25    1
    27    12    11    1
    28    12    26    1
    29     6    11   ar
    30     6     7   ar
    31    11    10   ar
    32    21     7    1
    33     7     8   ar
    34    10    24    1
    35    10     9   ar
    36     8     9   ar
    37     8    22    1
    38     9    23    1
