@<TRIPOS>MOLECULE
1
 12 13 0 0 0
SMALL
GASTEIGER

@<TRIPOS>ATOM
      1 SI         25.7020    0.9987    3.0602 Si      1  UNL1        0.0000
      2 C          23.8241    1.0979    3.2715 C.ar    1  UNL1        0.0000
      3 C          23.1987    0.7593    4.4721 C.ar    1  UNL1        0.0000
      4 C          21.8309    0.8945    4.6183 C.ar    1  UNL1        0.0000
      5 C          21.0641    1.3719    3.5671 C.ar    1  UNL1        0.0000
      6 C          21.6711    1.7116    2.3679 C.ar    1  UNL1        0.0000
      7 C          23.0382    1.5753    2.2211 C.ar    1  UNL1        0.0000
      8 H          23.7946    0.3947    5.2979 H       1  UNL1        0.0000
      9 H          21.3584    0.6295    5.5536 H       1  UNL1        0.0000
     10 H          19.9954    1.4796    3.6825 H       1  UNL1        0.0000
     11 H          21.0747    2.0847    1.5475 H       1  UNL1        0.0000
     12 H          23.5108    1.8435    1.2857 H       1  UNL1        0.0000
@<TRIPOS>BOND
     1    12     7    1
     2    11     6    1
     3     7     6   ar
     4     7     2   ar
     5     6     5   ar
     6     1     2    1
     7     2     3   ar
     8     5    10    1
     9     5     4   ar
    10     3     4   ar
    11     3     8    1
    12     4     9    1
    13     1     7    0
