@<TRIPOS>MOLECULE
1
 13 12 0 0 0
SMALL
GASTEIGER

@<TRIPOS>ATOM
      1 SI          1.9170    5.0970   10.9390 Si      1  UNL1        0.0000
      2 C           3.5310    6.1222   11.3651 C.3     1  UNL1        0.0000
      3 C           0.5571    5.8874   12.1061 C.3     1  UNL1        0.0000
      4 C           1.4524    6.1839    9.3778 C.3     1  UNL1        0.0000
      5 H           3.9067    6.6403   10.4883 H       1  UNL1        0.0000
      6 H           4.3334    5.4937   11.7416 H       1  UNL1        0.0000
      7 H           3.3241    6.8844   12.1098 H       1  UNL1        0.0000
      8 H           0.9989    6.5515   12.8412 H       1  UNL1        0.0000
      9 H          -0.0149    5.1352   12.6395 H       1  UNL1        0.0000
     10 H          -0.1452    6.4784   11.5264 H       1  UNL1        0.0000
     11 H           1.4849    7.2274    9.6772 H       1  UNL1        0.0000
     12 H           0.4494    5.9899    9.0112 H       1  UNL1        0.0000
     13 H           2.1394    6.0722    8.5456 H       1  UNL1        0.0000
@<TRIPOS>BOND
     1    13     4    1
     2    12     4    1
     3     4    11    1
     4     4     1    1
     5     5     2    1
     6     1     2    1
     7     1     3    1
     8     2     6    1
     9     2     7    1
    10    10     3    1
    11     3     9    1
    12     3     8    1
