@<TRIPOS>MOLECULE
1
 13 12 0 0 0
SMALL
GASTEIGER

@<TRIPOS>ATOM
      1 SI          2.1903    0.3259    3.7238 Si      1  UNL1        0.0000
      2 C           2.6014   -0.7260    5.3248 C.3     1  UNL1        0.0000
      3 C           3.4736   -0.6471    2.6107 C.3     1  UNL1        0.0000
      4 C           0.5457   -0.6400    3.2785 C.3     1  UNL1        0.0000
      5 H           3.5816   -0.4982    5.7303 H       1  UNL1        0.0000
      6 H           2.6126   -1.7762    5.0475 H       1  UNL1        0.0000
      7 H           1.8775   -0.6165    6.1242 H       1  UNL1        0.0000
      8 H           3.8604   -0.0809    1.7730 H       1  UNL1        0.0000
      9 H           3.0099   -1.5447    2.2138 H       1  UNL1        0.0000
     10 H           4.3262   -0.9646    3.2030 H       1  UNL1        0.0000
     11 H           0.5271   -1.6044    3.7762 H       1  UNL1        0.0000
     12 H           0.4557   -0.8297    2.2142 H       1  UNL1        0.0000
     13 H          -0.3450   -0.0988    3.5846 H       1  UNL1        0.0000
@<TRIPOS>BOND
     1     8     3    1
     2     9     3    1
     3    12     4    1
     4     3    10    1
     5     3     1    1
     6     4    13    1
     7     4     1    1
     8     4    11    1
     9     1     2    1
    10     6     2    1
    11     2     5    1
    12     2     7    1
