@<TRIPOS>MOLECULE
1
 10 9 0 0 0
SMALL
GASTEIGER

@<TRIPOS>ATOM
      1 SI         -2.1871    2.9745    2.4851 Si      1  UNL1        0.0000
      2 C          -2.7496    3.8799    0.8579 C.3     1  UNL1        0.0000
      3 C          -2.7560    1.1816    2.0010 C.3     1  UNL1        0.0000
      4 H          -3.4677    3.2479    3.2518 H       1  UNL1        0.0000
      5 H          -2.8557    4.9504    0.9954 H       1  UNL1        0.0000
      6 H          -3.7193    3.4939    0.5640 H       1  UNL1        0.0000
      7 H          -2.0751    3.7193    0.0235 H       1  UNL1        0.0000
      8 H          -3.7594    1.2297    1.5913 H       1  UNL1        0.0000
      9 H          -2.7941    0.5289    2.8671 H       1  UNL1        0.0000
     10 H          -2.1277    0.7133    1.2514 H       1  UNL1        0.0000
@<TRIPOS>BOND
     1     7     2    1
     2     6     2    1
     3     2     5    1
     4     2     1    1
     5    10     3    1
     6     8     3    1
     7     3     1    1
     8     3     9    1
     9     1     4    1
