@<TRIPOS>MOLECULE
1
 13 12 0 0 0
SMALL
GASTEIGER

@<TRIPOS>ATOM
      1 SI          4.0446   -1.2222    0.0623 Si      1  UNL1        0.0000
      2 C           4.1197   -0.3542   -1.6612 C.3     1  UNL1        0.0000
      3 C           5.7938   -2.0177    0.2562 C.3     1  UNL1        0.0000
      4 C           2.8798   -2.7342   -0.2331 C.3     1  UNL1        0.0000
      5 H           4.7703    0.5148   -1.6439 H       1  UNL1        0.0000
      6 H           4.5017   -1.0382   -2.4127 H       1  UNL1        0.0000
      7 H           3.1366   -0.0250   -1.9834 H       1  UNL1        0.0000
      8 H           5.8867   -2.5585    1.1931 H       1  UNL1        0.0000
      9 H           6.5770   -1.2665    0.2288 H       1  UNL1        0.0000
     10 H           5.9814   -2.7196   -0.5504 H       1  UNL1        0.0000
     11 H           1.8498   -2.4236   -0.3794 H       1  UNL1        0.0000
     12 H           3.1885   -3.2821   -1.1180 H       1  UNL1        0.0000
     13 H           2.9016   -3.4229    0.6059 H       1  UNL1        0.0000
@<TRIPOS>BOND
     1     6     2    1
     2     7     2    1
     3     2     5    1
     4     2     1    1
     5    12     4    1
     6    10     3    1
     7    11     4    1
     8     4     1    1
     9     4    13    1
    10     1     3    1
    11     9     3    1
    12     3     8    1
