@<TRIPOS>MOLECULE
1
 13 12 0 0 0
SMALL
GASTEIGER

@<TRIPOS>ATOM
      1 SI          1.6622   15.8204    9.4507 Si      1  UNL1        0.0000
      2 C           1.2264   14.0372   10.0288 C.3     1  UNL1        0.0000
      3 H           0.2898   13.7045    9.5948 H       1  UNL1        0.0000
      4 H           1.1306   13.9781   11.1058 H       1  UNL1        0.0000
      5 H           2.0015   13.3424    9.7254 H       1  UNL1        0.0000
      6 C           1.2597   15.8539    7.5681 C.3     1  UNL1        0.0000
      7 H           1.8825   15.1569    7.0187 H       1  UNL1        0.0000
      8 H           1.4314   16.8403    7.1523 H       1  UNL1        0.0000
      9 H           0.2233   15.5927    7.3791 H       1  UNL1        0.0000
     10 C           0.4183   17.0598   10.2428 C.3     1  UNL1        0.0000
     11 H          -0.5979   16.8365    9.9355 H       1  UNL1        0.0000
     12 H           0.6420   18.0740    9.9307 H       1  UNL1        0.0000
     13 H           0.4469   17.0372   11.3255 H       1  UNL1        0.0000
@<TRIPOS>BOND
     1     7     6    1
     2     8     6    1
     3     9     6    1
     4     6     1    1
     5     1     2    1
     6     1    10    1
     7     3     2    1
     8     5     2    1
     9    12    10    1
    10    11    10    1
    11     2     4    1
    12    10    13    1
