@<TRIPOS>MOLECULE
1
 13 12 0 0 0
SMALL
GASTEIGER

@<TRIPOS>ATOM
      1 SI          3.4268    5.2881   20.9355 Si      1  UNL1        0.0000
      2 C           4.1398    6.6697   22.0675 C.3     1  UNL1        0.0000
      3 H           4.4830    6.2558   23.0096 H       1  UNL1        0.0000
      4 H           3.3803    7.4110   22.2884 H       1  UNL1        0.0000
      5 H           4.9771    7.1796   21.6073 H       1  UNL1        0.0000
      6 C           2.2939    4.2313   22.0764 C.3     1  UNL1        0.0000
      7 H           1.8581    3.3995   21.5344 H       1  UNL1        0.0000
      8 H           1.4786    4.8243   22.4758 H       1  UNL1        0.0000
      9 H           2.8489    3.8237   22.9156 H       1  UNL1        0.0000
     10 C           4.8653    4.1242   20.3987 C.3     1  UNL1        0.0000
     11 H           5.3936    3.7351   21.2631 H       1  UNL1        0.0000
     12 H           5.5889    4.6300   19.7699 H       1  UNL1        0.0000
     13 H           4.4808    3.2786   19.8390 H       1  UNL1        0.0000
@<TRIPOS>BOND
     1    12    10    1
     2    13    10    1
     3    10     1    1
     4    10    11    1
     5     1     2    1
     6     1     6    1
     7     7     6    1
     8     5     2    1
     9     2     4    1
    10     2     3    1
    11     6     8    1
    12     6     9    1
