@<TRIPOS>MOLECULE
1
 13 12 0 0 0
SMALL
GASTEIGER

@<TRIPOS>ATOM
      1 SI          4.4079   -1.4333    4.0864 Si      1  UNL1        0.0000
      2 C           2.8521   -2.0032    5.0711 C.3     1  UNL1        0.0000
      3 H           3.0028   -2.9910    5.4939 H       1  UNL1        0.0000
      4 H           1.9819   -2.0495    4.4253 H       1  UNL1        0.0000
      5 H           2.6191   -1.3309    5.8880 H       1  UNL1        0.0000
      6 C           4.9022   -2.9560    3.0153 C.3     1  UNL1        0.0000
      7 H           5.0487   -3.8398    3.6282 H       1  UNL1        0.0000
      8 H           5.8233   -2.7744    2.4730 H       1  UNL1        0.0000
      9 H           4.1343   -3.1853    2.2851 H       1  UNL1        0.0000
     10 C           5.8613   -1.1687    5.3158 C.3     1  UNL1        0.0000
     11 H           5.5496   -0.5899    6.1765 H       1  UNL1        0.0000
     12 H           6.6817   -0.6389    4.8441 H       1  UNL1        0.0000
     13 H           6.2419   -2.1174    5.6789 H       1  UNL1        0.0000
@<TRIPOS>BOND
     1     9     6    1
     2     8     6    1
     3     6     7    1
     4     6     1    1
     5     1     2    1
     6     1    10    1
     7     4     2    1
     8    12    10    1
     9     2     3    1
    10     2     5    1
    11    10    13    1
    12    10    11    1
