@<TRIPOS>MOLECULE
1
 69 72 0 0 0
SMALL
GASTEIGER

@<TRIPOS>ATOM
      1 SI          3.6149    1.7432   12.2628 Si      1  UNL1        0.0000
      2 C           1.0668   -1.1310   12.3997 C.ar    1  UNL1        0.0000
      3 N           1.6790    1.1905   11.8465 N.3     1  UNL1        0.0000
      4 C           0.2973   -1.1905   13.5579 C.ar    1  UNL1        0.0000
      5 H           0.4248   -0.4370   14.3211 H       1  UNL1        0.0000
      6 N           3.9998    2.0884   10.5157 N.3     1  UNL1        0.0000
      7 C          -0.6163   -2.2151   13.7305 C.ar    1  UNL1        0.0000
      8 H          -1.2064   -2.2587   14.6336 H       1  UNL1        0.0000
      9 N           5.6030    1.5076   11.7954 N.3     1  UNL1        0.0000
     10 C          -0.7751   -3.1802   12.7497 C.ar    1  UNL1        0.0000
     11 H          -1.4887   -3.9787   12.8869 H       1  UNL1        0.0000
     12 N           3.3260   -0.0515   12.3852 N.3     1  UNL1        0.0000
     13 C           5.3196    1.9849   10.6181 C.3     1  UNL1        0.0000
     14 C           6.3125    2.3594    9.5951 C.ar    1  UNL1        0.0000
     15 C           7.5645    1.8493    7.6066 C.ar    1  UNL1        0.0000
     16 H           7.7830    1.1799    6.7876 H       1  UNL1        0.0000
     17 C           8.2440    3.0501    7.7227 C.ar    1  UNL1        0.0000
     18 H           8.9926    3.3198    6.9929 H       1  UNL1        0.0000
     19 C           7.9649    3.9025    8.7782 C.ar    1  UNL1        0.0000
     20 H           8.4960    4.8376    8.8740 H       1  UNL1        0.0000
     21 C          -0.0201   -3.1175   11.5907 C.ar    1  UNL1        0.0000
     22 H          -0.1448   -3.8655   10.8215 H       1  UNL1        0.0000
     23 C           7.0063    3.5599    9.7152 C.ar    1  UNL1        0.0000
     24 H           6.7851    4.2226   10.5389 H       1  UNL1        0.0000
     25 C           0.8958   -2.0953   11.4126 C.ar    1  UNL1        0.0000
     26 H           1.4813   -2.0400   10.5058 H       1  UNL1        0.0000
     27 C           3.2496    2.7756    9.4955 C.3     1  UNL1        0.0000
     28 H           2.2218    2.7433    9.8609 H       1  UNL1        0.0000
     29 C           6.6041    1.5014    8.5404 C.ar    1  UNL1        0.0000
     30 H           6.0772    0.5615    8.4561 H       1  UNL1        0.0000
     31 C           4.1000   -1.0985   13.0021 C.3     1  UNL1        0.0000
     32 H           5.1016   -0.6720   13.0789 H       1  UNL1        0.0000
     33 C           3.6626    4.2421    9.3612 C.3     1  UNL1        0.0000
     34 H           4.6362    4.3328    8.8859 H       1  UNL1        0.0000
     35 H           3.7085    4.7047   10.3447 H       1  UNL1        0.0000
     36 H           2.9340    4.7779    8.7574 H       1  UNL1        0.0000
     37 C           3.6110   -1.4257   14.4139 C.3     1  UNL1        0.0000
     38 H           2.6673   -1.9650   14.3863 H       1  UNL1        0.0000
     39 H           3.4728   -0.5067   14.9795 H       1  UNL1        0.0000
     40 H           4.3450   -2.0433   14.9259 H       1  UNL1        0.0000
     41 C           3.3042    2.0557    8.1467 C.3     1  UNL1        0.0000
     42 H           2.5654    2.4828    7.4724 H       1  UNL1        0.0000
     43 H           3.0847    0.9988    8.2801 H       1  UNL1        0.0000
     44 H           4.2846    2.1581    7.6889 H       1  UNL1        0.0000
     45 C           4.1769   -2.3558   12.1339 C.3     1  UNL1        0.0000
     46 H           4.4492   -2.0882   11.1154 H       1  UNL1        0.0000
     47 H           3.2245   -2.8790   12.1194 H       1  UNL1        0.0000
     48 H           4.9321   -3.0304   12.5308 H       1  UNL1        0.0000
     49 C           6.9664    1.2895   12.2358 C.3     1  UNL1        0.0000
     50 H           7.5915    2.1114   11.8541 H       1  UNL1        0.0000
     51 C           0.3048    1.5724   11.5897 C.3     1  UNL1        0.0000
     52 H          -0.3410    1.0627   12.3211 H       1  UNL1        0.0000
     53 C           7.0508    1.2997   13.7578 C.3     1  UNL1        0.0000
     54 H           8.0834    1.1556   14.0668 H       1  UNL1        0.0000
     55 H           6.4449    0.5071   14.1869 H       1  UNL1        0.0000
     56 H           6.6989    2.2510   14.1485 H       1  UNL1        0.0000
     57 C           0.1202    3.0755   11.7636 C.3     1  UNL1        0.0000
     58 H           0.7425    3.6278   11.0655 H       1  UNL1        0.0000
     59 H           0.3887    3.3740   12.7737 H       1  UNL1        0.0000
     60 H          -0.9202    3.3381   11.5866 H       1  UNL1        0.0000
     61 C           7.5263   -0.0209   11.6688 C.3     1  UNL1        0.0000
     62 H           7.5089   -0.0022   10.5818 H       1  UNL1        0.0000
     63 H           6.9424   -0.8708   12.0111 H       1  UNL1        0.0000
     64 H           8.5554   -0.1508   11.9947 H       1  UNL1        0.0000
     65 C          -0.1389    1.1282   10.1904 C.3     1  UNL1        0.0000
     66 H           0.4699    1.5999    9.4241 H       1  UNL1        0.0000
     67 H          -1.1780    1.4056   10.0304 H       1  UNL1        0.0000
     68 H          -0.0509    0.0491   10.0892 H       1  UNL1        0.0000
     69 C           2.0106   -0.0154   12.2073 C.3     1  UNL1        0.0000
@<TRIPOS>BOND
     1    16    15    1
     2    18    17    1
     3    42    41    1
     4    15    17   ar
     5    15    29   ar
     6    44    41    1
     7    17    19   ar
     8    41    43    1
     9    41    27    1
    10    30    29    1
    11    29    14   ar
    12    36    33    1
    13    19    20    1
    14    19    23   ar
    15    34    33    1
    16    33    27    1
    17    33    35    1
    18    66    65    1
    19    27    28    1
    20    27     6    1
    21    14    23   ar
    22    14    13    1
    23    23    24    1
    24    67    65    1
    25    68    65    1
    26    65    51    1
    27    26    25    1
    28     6    13    1
    29     6     1    1
    30    62    61    1
    31    13     9    1
    32    22    21    1
    33    58    57    1
    34    46    45    1
    35    25    21   ar
    36    25     2   ar
    37    60    57    1
    38    51    57    1
    39    51     3    1
    40    51    52    1
    41    21    10   ar
    42    61    64    1
    43    61    63    1
    44    61    49    1
    45    57    59    1
    46     9    49    1
    47     9     1    1
    48     3    69    1
    49     3     1    1
    50    50    49    1
    51    47    45    1
    52    45    48    1
    53    45    31    1
    54    69    12    1
    55    69     2    1
    56    49    53    1
    57     1    12    1
    58    12    31    1
    59     2     4   ar
    60    10    11    1
    61    10     7   ar
    62    31    32    1
    63    31    37    1
    64     4     7   ar
    65     4     5    1
    66     7     8    1
    67    53    54    1
    68    53    56    1
    69    53    55    1
    70    38    37    1
    71    37    40    1
    72    37    39    1
