@<TRIPOS>MOLECULE
1
 47 49 0 0 0
SMALL
GASTEIGER

@<TRIPOS>ATOM
      1 SI          0.6107    2.8988    3.2174 Si      1  UNL1        0.0000
      2 SI          4.4095    2.6268    4.7456 Si      1  UNL1        0.0000
      3 H           3.1045    3.3841    4.1915 H       1  UNL1        0.0000
      4 O           2.8615    1.1647    2.6107 O.3     1  UNL1        0.0000
      5 C          -0.9533    3.7327    2.4692 C.3     1  UNL1        0.0000
      6 H          -1.8575    3.2923    2.8769 H       1  UNL1        0.0000
      7 H          -0.9873    3.6366    1.3887 H       1  UNL1        0.0000
      8 H          -0.9689    4.7913    2.7053 H       1  UNL1        0.0000
      9 C           0.1949    2.7659    5.1026 C.3     1  UNL1        0.0000
     10 H          -0.8001    2.3502    5.2238 H       1  UNL1        0.0000
     11 H           0.2049    3.7431    5.5737 H       1  UNL1        0.0000
     12 H           0.8869    2.1275    5.6440 H       1  UNL1        0.0000
     13 C           0.5039    1.0560    2.6297 C.ar    1  UNL1        0.0000
     14 C          -0.6556    0.3289    2.4196 C.ar    1  UNL1        0.0000
     15 H          -1.6090    0.7847    2.6346 H       1  UNL1        0.0000
     16 C          -0.5965   -0.9691    1.9427 C.ar    1  UNL1        0.0000
     17 H          -1.5063   -1.5317    1.7941 H       1  UNL1        0.0000
     18 C           0.6199   -1.5481    1.6236 C.ar    1  UNL1        0.0000
     19 H           0.6360   -2.5483    1.2222 H       1  UNL1        0.0000
     20 C           1.8042   -0.8464    1.8015 C.ar    1  UNL1        0.0000
     21 C           1.7095    0.4334    2.3359 C.ar    1  UNL1        0.0000
     22 C           3.1773   -1.3227    1.3670 C.3     1  UNL1        0.0000
     23 C           3.5171   -0.6079    0.0420 C.3     1  UNL1        0.0000
     24 H           2.8011   -0.8893   -0.7273 H       1  UNL1        0.0000
     25 H           4.5168   -0.8842   -0.2876 H       1  UNL1        0.0000
     26 H           3.4822    0.4753    0.1557 H       1  UNL1        0.0000
     27 C           3.2359   -2.8326    1.1444 C.3     1  UNL1        0.0000
     28 H           3.0099   -3.3700    2.0632 H       1  UNL1        0.0000
     29 H           4.2221   -3.1261    0.7938 H       1  UNL1        0.0000
     30 H           2.5227   -3.1251    0.3783 H       1  UNL1        0.0000
     31 C           3.9592    0.4174    2.9686 C.ar    1  UNL1        0.0000
     32 C           4.1638   -0.8464    2.4144 C.ar    1  UNL1        0.0000
     33 C           5.2853   -1.5541    2.8197 C.ar    1  UNL1        0.0000
     34 H           5.4807   -2.5345    2.4172 H       1  UNL1        0.0000
     35 C           6.1775   -1.0118    3.7296 C.ar    1  UNL1        0.0000
     36 H           7.0532   -1.5733    4.0182 H       1  UNL1        0.0000
     37 C           5.9496    0.2396    4.2681 C.ar    1  UNL1        0.0000
     38 H           6.6424    0.6555    4.9836 H       1  UNL1        0.0000
     39 C           4.8260    0.9720    3.9077 C.ar    1  UNL1        0.0000
     40 C           3.9195    2.1841    6.5378 C.3     1  UNL1        0.0000
     41 H           3.1051    1.4662    6.5755 H       1  UNL1        0.0000
     42 H           3.6088    3.0661    7.0888 H       1  UNL1        0.0000
     43 H           4.7619    1.7461    7.0641 H       1  UNL1        0.0000
     44 C           5.9300    3.7702    4.8166 C.3     1  UNL1        0.0000
     45 H           6.6994    3.3424    5.4515 H       1  UNL1        0.0000
     46 H           5.6601    4.7352    5.2341 H       1  UNL1        0.0000
     47 H           6.3667    3.9460    3.8388 H       1  UNL1        0.0000
@<TRIPOS>BOND
     1    24    23    1
     2    25    23    1
     3    23    26    1
     4    23    22    1
     5    30    27    1
     6    29    27    1
     7    27    22    1
     8    27    28    1
     9    19    18    1
    10    22    20    1
    11    22    32    1
    12     7     5    1
    13    18    20   ar
    14    18    16   ar
    15    17    16    1
    16    20    21   ar
    17    16    14   ar
    18    21     4    1
    19    21    13   ar
    20    32    33   ar
    21    32    31   ar
    22    34    33    1
    23    14    13   ar
    24    14    15    1
    25     5     8    1
    26     5     6    1
    27     5     1    1
    28     4    31    1
    29    13     1    1
    30    33    35   ar
    31    31    39   ar
    32     1     9    1
    33    35    36    1
    34    35    37   ar
    35    47    44    1
    36    39    37   ar
    37    39     2    1
    38     3     2    1
    39    37    38    1
    40     2    44    1
    41     2    40    1
    42    44    46    1
    43    44    45    1
    44     9    10    1
    45     9    11    1
    46     9    12    1
    47    40    41    1
    48    40    43    1
    49    40    42    1
