@<TRIPOS>MOLECULE
1
 46 48 0 0 0
SMALL
GASTEIGER

@<TRIPOS>ATOM
      1 SI         -1.1384   -0.1657    3.6625 Si      1  UNL1        0.0000
      2 SI         -0.3614    3.9698    3.6690 Si      1  UNL1        0.0000
      3 O          -2.4326    2.2160    2.4789 O.3     1  UNL1        0.0000
      4 C          -2.1304    0.4594    5.2073 C.3     1  UNL1        0.0000
      5 H          -2.6962    1.3553    4.9797 H       1  UNL1        0.0000
      6 H          -1.4888    0.6693    6.0576 H       1  UNL1        0.0000
      7 H          -2.8364   -0.3083    5.5065 H       1  UNL1        0.0000
      8 C          -0.9016   -2.0399    4.0644 C.3     1  UNL1        0.0000
      9 H          -1.8525   -2.5051    4.3048 H       1  UNL1        0.0000
     10 H          -0.2504   -2.1633    4.9247 H       1  UNL1        0.0000
     11 H          -0.4558   -2.5881    3.2397 H       1  UNL1        0.0000
     12 C          -2.4811   -0.1288    2.2915 C.ar    1  UNL1        0.0000
     13 C          -2.9651   -1.2645    1.6619 C.ar    1  UNL1        0.0000
     14 H          -2.6118   -2.2324    1.9778 H       1  UNL1        0.0000
     15 C          -3.8767   -1.1701    0.6266 C.ar    1  UNL1        0.0000
     16 H          -4.2389   -2.0642    0.1407 H       1  UNL1        0.0000
     17 C          -4.3268    0.0669    0.2031 C.ar    1  UNL1        0.0000
     18 H          -5.0339    0.1154   -0.6089 H       1  UNL1        0.0000
     19 C          -3.8777    1.2300    0.8131 C.ar    1  UNL1        0.0000
     20 C          -2.9594    1.1022    1.8502 C.ar    1  UNL1        0.0000
     21 C          -4.3766    2.6190    0.4577 C.3     1  UNL1        0.0000
     22 C          -5.4858    2.9884    1.4653 C.3     1  UNL1        0.0000
     23 H          -5.1128    2.9359    2.4862 H       1  UNL1        0.0000
     24 H          -6.3191    2.2957    1.3693 H       1  UNL1        0.0000
     25 H          -5.8428    3.9996    1.2787 H       1  UNL1        0.0000
     26 C          -4.9496    2.6937   -0.9572 C.3     1  UNL1        0.0000
     27 H          -5.3293    3.6915   -1.1610 H       1  UNL1        0.0000
     28 H          -5.7855    2.0080   -1.0624 H       1  UNL1        0.0000
     29 H          -4.1905    2.4428   -1.6946 H       1  UNL1        0.0000
     30 C          -2.3733    3.3594    1.7458 C.ar    1  UNL1        0.0000
     31 C          -3.2325    3.5917    0.6706 C.ar    1  UNL1        0.0000
     32 C          -3.0398    4.7439   -0.0752 C.ar    1  UNL1        0.0000
     33 H          -3.6700    4.9509   -0.9246 H       1  UNL1        0.0000
     34 C          -2.0480    5.6536    0.2554 C.ar    1  UNL1        0.0000
     35 H          -1.9171    6.5424   -0.3429 H       1  UNL1        0.0000
     36 C          -1.2449    5.4368    1.3563 C.ar    1  UNL1        0.0000
     37 H          -0.4916    6.1612    1.6256 H       1  UNL1        0.0000
     38 C          -1.3906    4.2827    2.1223 C.ar    1  UNL1        0.0000
     39 C           1.2416    4.9946    3.6955 C.3     1  UNL1        0.0000
     40 H           1.7968    4.9059    2.7654 H       1  UNL1        0.0000
     41 H           1.8970    4.6748    4.5009 H       1  UNL1        0.0000
     42 H           1.0230    6.0473    3.8524 H       1  UNL1        0.0000
     43 C          -1.3698    4.1819    5.2699 C.3     1  UNL1        0.0000
     44 H          -0.8059    3.8687    6.1442 H       1  UNL1        0.0000
     45 H          -2.2870    3.6014    5.2428 H       1  UNL1        0.0000
     46 H          -1.6434    5.2247    5.4075 H       1  UNL1        0.0000
@<TRIPOS>BOND
     1    29    26    1
     2    27    26    1
     3    28    26    1
     4    26    21    1
     5    33    32    1
     6    18    17    1
     7    35    34    1
     8    32    34   ar
     9    32    31   ar
    10    16    15    1
    11    17    15   ar
    12    17    19   ar
    13    34    36   ar
    14    21    31    1
    15    21    19    1
    16    21    22    1
    17    15    13   ar
    18    31    30   ar
    19    19    20   ar
    20    25    22    1
    21    36    37    1
    22    36    38   ar
    23    24    22    1
    24    22    23    1
    25    13    14    1
    26    13    12   ar
    27    30    38   ar
    28    30     3    1
    29    20    12   ar
    30    20     3    1
    31    38     2    1
    32    12     1    1
    33    40    39    1
    34    11     8    1
    35     1     8    1
    36     1     4    1
    37     2    39    1
    38     2    43    1
    39    39    42    1
    40    39    41    1
    41     8     9    1
    42     8    10    1
    43     5     4    1
    44     4     7    1
    45     4     6    1
    46    45    43    1
    47    43    46    1
    48    43    44    1
