@<TRIPOS>MOLECULE
1
 16 16 0 0 0
SMALL
GASTEIGER

@<TRIPOS>ATOM
      1 SI          4.0051    4.6531    3.4338 Si      1  UNL1        0.0000
      2 O           1.6305    5.9455    1.9213 O.3     1  UNL1        0.0000
      3 C           1.8754    5.8158    3.0441 C.3     1  UNL1        0.0000
      4 C           5.0193    6.0005    2.5741 C.ar    1  UNL1        0.0000
      5 C           5.7004    6.9606    3.3169 C.ar    1  UNL1        0.0000
      6 C           6.4097    7.9739    2.6995 C.ar    1  UNL1        0.0000
      7 C           6.4473    8.0502    1.3170 C.ar    1  UNL1        0.0000
      8 C           5.7754    7.1049    0.5616 C.ar    1  UNL1        0.0000
      9 C           5.0719    6.0915    1.1879 C.ar    1  UNL1        0.0000
     10 H           3.6176    3.6902    2.3688 H       1  UNL1        0.0000
     11 H           4.9753    3.8502    4.2203 H       1  UNL1        0.0000
     12 H           5.6710    6.9118    4.3971 H       1  UNL1        0.0000
     13 H           6.9307    8.7094    3.2958 H       1  UNL1        0.0000
     14 H           6.9963    8.8439    0.8311 H       1  UNL1        0.0000
     15 H           5.7994    7.1590   -0.5176 H       1  UNL1        0.0000
     16 H           4.5502    5.3577    0.5908 H       1  UNL1        0.0000
@<TRIPOS>BOND
     1    15     8    1
     2     8     9   ar
     3     8     7   ar
     4    16     9    1
     5    14     7    1
     6     9     4   ar
     7     7     6   ar
     8     2     3    1
     9    10     1    1
    10     4     5   ar
    11     4     1    1
    12     6    13    1
    13     6     5   ar
    14     5    12    1
    15     1    11    1
    16     1     3    0
