@<TRIPOS>MOLECULE
1
 35 35 0 0 0
SMALL
GASTEIGER

@<TRIPOS>ATOM
      1 SI          0.8996    4.9674   -0.5930 Si      1  UNL1        0.0000
      2 SI          1.5650    6.2428    1.3239 Si      1  UNL1        0.0000
      3 N           4.1576   12.7729   -1.4551 N.1     1  UNL1        0.0000
      4 N           0.8448   15.3898   -1.4022 N.1     1  UNL1        0.0000
      5 C           2.1673    5.3233   -2.0074 C.3     1  UNL1        0.0000
      6 H           1.8954    4.8101   -2.9261 H       1  UNL1        0.0000
      7 H           3.1776    5.0214   -1.7494 H       1  UNL1        0.0000
      8 H           2.1899    6.3875   -2.2218 H       1  UNL1        0.0000
      9 C          -0.7226    5.8204   -1.2047 C.3     1  UNL1        0.0000
     10 H          -0.5772    6.8895   -1.3253 H       1  UNL1        0.0000
     11 H          -1.5345    5.6723   -0.4987 H       1  UNL1        0.0000
     12 H          -1.0492    5.4215   -2.1608 H       1  UNL1        0.0000
     13 C           0.4430    5.8446    2.8186 C.3     1  UNL1        0.0000
     14 H           0.6692    6.4620    3.6833 H       1  UNL1        0.0000
     15 H           0.5586    4.8054    3.1148 H       1  UNL1        0.0000
     16 H          -0.6044    5.9880    2.5735 H       1  UNL1        0.0000
     17 C           3.3798    5.9937    1.8847 C.3     1  UNL1        0.0000
     18 H           3.6804    6.7527    2.6014 H       1  UNL1        0.0000
     19 H           4.0705    6.0442    1.0486 H       1  UNL1        0.0000
     20 H           3.5129    5.0276    2.3623 H       1  UNL1        0.0000
     21 C           1.3700    8.0759    0.8678 C.ar    1  UNL1        0.0000
     22 C           2.4255    8.7975    0.3098 C.ar    1  UNL1        0.0000
     23 H           3.3855    8.3193    0.1917 H       1  UNL1        0.0000
     24 C           2.2825   10.1085   -0.0872 C.ar    1  UNL1        0.0000
     25 H           3.1261   10.6326   -0.5072 H       1  UNL1        0.0000
     26 C           1.0512   10.7622    0.0530 C.ar    1  UNL1        0.0000
     27 C          -0.0182   10.0371    0.6013 C.ar    1  UNL1        0.0000
     28 H          -0.9787   10.5202    0.7169 H       1  UNL1        0.0000
     29 C           0.1431    8.7278    0.9934 C.ar    1  UNL1        0.0000
     30 H          -0.6961    8.1951    1.4134 H       1  UNL1        0.0000
     31 C           0.8179   12.1264   -0.3295 C.2     1  UNL1        0.0000
     32 H          -0.1935   12.4841   -0.1671 H       1  UNL1        0.0000
     33 C           1.6829   13.0292   -0.8630 C.2     1  UNL1        0.0000
     34 C           3.0466   12.8424   -1.1749 C.1     1  UNL1        0.0000
     35 C           1.2245   14.3350   -1.1634 C.1     1  UNL1        0.0000
@<TRIPOS>BOND
     1     6     5    1
     2     8     5    1
     3    12     9    1
     4     5     7    1
     5     5     1    1
     6     3    34    3
     7     4    35    3
     8    10     9    1
     9     9     1    1
    10     9    11    1
    11    34    33    1
    12    35    33    1
    13    33    31    2
    14     1     2    1
    15    25    24    1
    16    31    32    1
    17    31    26    1
    18    24    26   ar
    19    24    22   ar
    20    26    27   ar
    21    23    22    1
    22    22    21   ar
    23    27    28    1
    24    27    29   ar
    25    21    29   ar
    26    21     2    1
    27    29    30    1
    28    19    17    1
    29     2    17    1
    30     2    13    1
    31    17    20    1
    32    17    18    1
    33    16    13    1
    34    13    15    1
    35    13    14    1
