@<TRIPOS>MOLECULE
2
 14 14 0 0 0
SMALL
GASTEIGER

@<TRIPOS>ATOM
      1 CL          5.6890    8.6922   14.2864 Cl      1  UNL1        0.0000
      2 SI          4.0920    8.8442   15.6273 Si      1  UNL1        0.0000
      3 H           3.8790    7.3686   15.8024 H       1  UNL1        0.0000
      4 C           4.9631    9.3057   17.2748 C.ar    1  UNL1        0.0000
      5 C           6.3362    9.1591   17.4493 C.ar    1  UNL1        0.0000
      6 H           6.9368    8.7992   16.6275 H       1  UNL1        0.0000
      7 C           6.9462    9.4698   18.6518 C.ar    1  UNL1        0.0000
      8 H           8.0149    9.3492   18.7599 H       1  UNL1        0.0000
      9 C           6.1914    9.9330   19.7155 C.ar    1  UNL1        0.0000
     10 H           6.6653   10.1753   20.6563 H       1  UNL1        0.0000
     11 C           4.8239   10.0877   19.5618 C.ar    1  UNL1        0.0000
     12 H           4.2226   10.4521   20.3836 H       1  UNL1        0.0000
     13 C           4.2236    9.7799   18.3548 C.ar    1  UNL1        0.0000
     14 H           3.1572    9.9183   18.2444 H       1  UNL1        0.0000
@<TRIPOS>BOND
     1     1     2    1
     2     2     3    1
     3     2     4    1
     4     6     5    1
     5     4     5   ar
     6     4    13   ar
     7     5     7   ar
     8    14    13    1
     9    13    11   ar
    10     7     8    1
    11     7     9   ar
    12    11     9   ar
    13    11    12    1
    14     9    10    1
