@<TRIPOS>MOLECULE
1
 20 20 0 0 0
SMALL
GASTEIGER

@<TRIPOS>ATOM
      1 SI          4.9902    5.6242   21.8752 Si      1  UNL1        0.0000
      2 C           6.0543    7.1925   21.4926 C.ar    1  UNL1        0.0000
      3 C           6.7282    7.9068   22.4786 C.ar    1  UNL1        0.0000
      4 C           7.4462    9.0532   22.1820 C.ar    1  UNL1        0.0000
      5 C           7.5070    9.5160   20.8790 C.ar    1  UNL1        0.0000
      6 C           6.8473    8.8194   19.8798 C.ar    1  UNL1        0.0000
      7 C           6.1302    7.6779   20.1901 C.ar    1  UNL1        0.0000
      8 C           5.7810    4.3009   20.7060 C.3     1  UNL1        0.0000
      9 C           5.6208    5.0424   23.6063 C.3     1  UNL1        0.0000
     10 H           6.6961    7.5544   23.4992 H       1  UNL1        0.0000
     11 H           7.9614    9.5880   22.9687 H       1  UNL1        0.0000
     12 H           8.0665   10.4102   20.6425 H       1  UNL1        0.0000
     13 H           6.8927    9.1705   18.8574 H       1  UNL1        0.0000
     14 H           5.6175    7.1461   19.4014 H       1  UNL1        0.0000
     15 H           5.6056    4.5349   19.6613 H       1  UNL1        0.0000
     16 H           5.3686    3.3145   20.8927 H       1  UNL1        0.0000
     17 H           6.8554    4.2461   20.8560 H       1  UNL1        0.0000
     18 H           5.3116    5.7137   24.4013 H       1  UNL1        0.0000
     19 H           6.7038    4.9695   23.6290 H       1  UNL1        0.0000
     20 H           5.2206    4.0617   23.8417 H       1  UNL1        0.0000
@<TRIPOS>BOND
     1    13     6    1
     2    14     7    1
     3    15     8    1
     4     6     7   ar
     5     6     5   ar
     6     7     2   ar
     7    12     5    1
     8     8    17    1
     9     8    16    1
    10     8     1    1
    11     5     4   ar
    12     2     1    1
    13     2     3   ar
    14     1     9    1
    15     4     3   ar
    16     4    11    1
    17     3    10    1
    18     9    19    1
    19     9    20    1
    20     9    18    1
