@<TRIPOS>MOLECULE
1
 13 12 0 0 0
SMALL
GASTEIGER

@<TRIPOS>ATOM
      1 SI          0.3785    0.3610    3.3866 Si      1  UNL1        0.0000
      2 C          -0.2895    1.5209    4.8030 C.3     1  UNL1        0.0000
      3 C          -1.1920   -0.4723    2.6407 C.3     1  UNL1        0.0000
      4 C           0.8641    1.6056    1.9760 C.3     1  UNL1        0.0000
      5 H           0.5026    1.8812    5.4512 H       1  UNL1        0.0000
      6 H          -0.7885    2.3844    4.3758 H       1  UNL1        0.0000
      7 H          -1.0096    0.9953    5.4188 H       1  UNL1        0.0000
      8 H          -1.8060    0.2642    2.1328 H       1  UNL1        0.0000
      9 H          -0.9182   -1.2372    1.9253 H       1  UNL1        0.0000
     10 H          -1.7939   -0.9419    3.4059 H       1  UNL1        0.0000
     11 H           1.7197    2.2194    2.2287 H       1  UNL1        0.0000
     12 H           1.0880    1.0722    1.0608 H       1  UNL1        0.0000
     13 H           0.0300    2.2705    1.7738 H       1  UNL1        0.0000
@<TRIPOS>BOND
     1    12     4    1
     2    13     4    1
     3     9     3    1
     4     4    11    1
     5     4     1    1
     6     8     3    1
     7     3     1    1
     8     3    10    1
     9     1     2    1
    10     6     2    1
    11     2     7    1
    12     2     5    1
