@<TRIPOS>MOLECULE
1
 41 42 0 0 0
SMALL
GASTEIGER

@<TRIPOS>ATOM
      1 SI          5.3743   16.3904   11.9185 Si      1  UNL1        0.0000
      2 C           6.4569   16.5788   10.3258 C.ar    1  UNL1        0.0000
      3 C           6.3851   15.6295    9.2969 C.ar    1  UNL1        0.0000
      4 C           7.1106   15.8132    8.1274 C.ar    1  UNL1        0.0000
      5 H           7.0442   15.0701    7.3443 H       1  UNL1        0.0000
      6 C           7.9139   16.9259    7.9369 C.ar    1  UNL1        0.0000
      7 C           7.9788   17.8655    8.9556 C.ar    1  UNL1        0.0000
      8 H           8.5983   18.7422    8.8240 H       1  UNL1        0.0000
      9 C           7.2669   17.7083   10.1342 C.ar    1  UNL1        0.0000
     10 C           5.5618   14.3852    9.4312 C.3     1  UNL1        0.0000
     11 H           5.3534   13.9586    8.4525 H       1  UNL1        0.0000
     12 H           4.6228   14.5832    9.9433 H       1  UNL1        0.0000
     13 H           6.1024   13.6377   10.0104 H       1  UNL1        0.0000
     14 C           8.7086   17.1016    6.6795 C.3     1  UNL1        0.0000
     15 H           8.7796   18.1530    6.4087 H       1  UNL1        0.0000
     16 H           8.2604   16.5524    5.8548 H       1  UNL1        0.0000
     17 H           9.7214   16.7245    6.8264 H       1  UNL1        0.0000
     18 C           7.3905   18.7586   11.1957 C.3     1  UNL1        0.0000
     19 H           7.9472   18.3672   12.0455 H       1  UNL1        0.0000
     20 H           6.4133   19.0711   11.5532 H       1  UNL1        0.0000
     21 H           7.9158   19.6308   10.8128 H       1  UNL1        0.0000
     22 C           6.6680   16.4162   13.3485 C.ar    1  UNL1        0.0000
     23 C           6.6598   17.4071   14.3350 C.ar    1  UNL1        0.0000
     24 C           7.5698   17.3497   15.3848 C.ar    1  UNL1        0.0000
     25 H           7.5496   18.1278   16.1357 H       1  UNL1        0.0000
     26 C           8.4936   16.3258   15.4930 C.ar    1  UNL1        0.0000
     27 C           8.4924   15.3397   14.5149 C.ar    1  UNL1        0.0000
     28 H           9.2043   14.5286   14.5849 H       1  UNL1        0.0000
     29 C           7.5985   15.3718   13.4596 C.ar    1  UNL1        0.0000
     30 C           5.7278   18.5830   14.3146 C.3     1  UNL1        0.0000
     31 H           5.2640   18.7018   15.2921 H       1  UNL1        0.0000
     32 H           4.9387   18.4709   13.5751 H       1  UNL1        0.0000
     33 H           6.2843   19.4959   14.0987 H       1  UNL1        0.0000
     34 C           9.4571   16.2617   16.6382 C.3     1  UNL1        0.0000
     35 H           9.1305   15.5100   17.3573 H       1  UNL1        0.0000
     36 H           9.5187   17.2188   17.1504 H       1  UNL1        0.0000
     37 H          10.4500   15.9815   16.2913 H       1  UNL1        0.0000
     38 C           7.6415   14.2807   12.4341 C.3     1  UNL1        0.0000
     39 H           8.3503   13.5083   12.7234 H       1  UNL1        0.0000
     40 H           7.9438   14.6809   11.4678 H       1  UNL1        0.0000
     41 H           6.6589   13.8262   12.3236 H       1  UNL1        0.0000
@<TRIPOS>BOND
     1    16    14    1
     2    15    14    1
     3    14    17    1
     4    14     6    1
     5     5     4    1
     6     6     4   ar
     7     6     7   ar
     8     4     3   ar
     9    11    10    1
    10     8     7    1
    11     7     9   ar
    12     3    10    1
    13     3     2   ar
    14    10    12    1
    15    10    13    1
    16     9     2   ar
    17     9    18    1
    18     2     1    1
    19    21    18    1
    20    18    20    1
    21    18    19    1
    22    40    38    1
    23     1    22    1
    24    41    38    1
    25    38    39    1
    26    38    29    1
    27    22    29   ar
    28    22    23   ar
    29    29    27   ar
    30    32    30    1
    31    33    30    1
    32    30    23    1
    33    30    31    1
    34    23    24   ar
    35    27    28    1
    36    27    26   ar
    37    24    26   ar
    38    24    25    1
    39    26    34    1
    40    37    34    1
    41    34    36    1
    42    34    35    1
