@<TRIPOS>MOLECULE
1
 13 12 0 0 0
SMALL
GASTEIGER

@<TRIPOS>ATOM
      1 SI          2.6537   14.1940   12.5324 Si      1  UNL1        0.0000
      2 C           3.8487   13.4215   13.8542 C.3     1  UNL1        0.0000
      3 H           3.4290   12.5129   14.2730 H       1  UNL1        0.0000
      4 H           4.0329   14.1129   14.6707 H       1  UNL1        0.0000
      5 H           4.8119   13.1655   13.4258 H       1  UNL1        0.0000
      6 C           0.9122   13.9299   13.3493 C.3     1  UNL1        0.0000
      7 H           0.8546   12.9458   13.8060 H       1  UNL1        0.0000
      8 H           0.0995   13.9964   12.6319 H       1  UNL1        0.0000
      9 H           0.7281   14.6643   14.1283 H       1  UNL1        0.0000
     10 C           2.6898   12.8589   11.1220 C.3     1  UNL1        0.0000
     11 H           3.6939   12.4798   10.9674 H       1  UNL1        0.0000
     12 H           2.3274   13.2272   10.1687 H       1  UNL1        0.0000
     13 H           2.0636   12.0185   11.4030 H       1  UNL1        0.0000
@<TRIPOS>BOND
     1    12    10    1
     2    11    10    1
     3    10    13    1
     4    10     1    1
     5     1     6    1
     6     1     2    1
     7     8     6    1
     8     6     7    1
     9     6     9    1
    10     5     2    1
    11     2     3    1
    12     2     4    1
