@<TRIPOS>MOLECULE
2
 24 25 0 0 0
SMALL
GASTEIGER

@<TRIPOS>ATOM
      1 CL         -1.5691    8.5021    9.5366 Cl      1  UNL1        0.0000
      2 SI         -0.4908    8.6885   11.3535 Si      1  UNL1        0.0000
      3 C          -1.4680   10.1352   12.1515 C.ar    1  UNL1        0.0000
      4 C          -2.8039    9.9476   12.4936 C.ar    1  UNL1        0.0000
      5 H          -3.2677    8.9886   12.3100 H       1  UNL1        0.0000
      6 C          -3.5448   10.9670   13.0621 C.ar    1  UNL1        0.0000
      7 H          -4.5813   10.8006   13.3208 H       1  UNL1        0.0000
      8 C          -2.9599   12.1994   13.3011 C.ar    1  UNL1        0.0000
      9 H          -3.5368   12.9972   13.7476 H       1  UNL1        0.0000
     10 C          -1.6330   12.4030   12.9646 C.ar    1  UNL1        0.0000
     11 H          -1.1699   13.3630   13.1472 H       1  UNL1        0.0000
     12 C          -0.8978   11.3784   12.3947 C.ar    1  UNL1        0.0000
     13 H           0.1390   11.5433   12.1355 H       1  UNL1        0.0000
     14 C          -1.1195    7.1595   12.3199 C.ar    1  UNL1        0.0000
     15 C          -1.1906    7.2008   13.7092 C.ar    1  UNL1        0.0000
     16 H          -0.9508    8.1223   14.2223 H       1  UNL1        0.0000
     17 C          -1.5632    6.0878   14.4396 C.ar    1  UNL1        0.0000
     18 H          -1.6144    6.1423   15.5185 H       1  UNL1        0.0000
     19 C          -1.8692    4.9034   13.7902 C.ar    1  UNL1        0.0000
     20 H          -2.1596    4.0309   14.3588 H       1  UNL1        0.0000
     21 C          -1.8008    4.8440   12.4088 C.ar    1  UNL1        0.0000
     22 H          -2.0386    3.9229   11.8945 H       1  UNL1        0.0000
     23 C          -1.4262    5.9616   11.6846 C.ar    1  UNL1        0.0000
     24 H          -1.3746    5.9075   10.6061 H       1  UNL1        0.0000
@<TRIPOS>BOND
     1     1     2    1
     2    24    23    1
     3     2     3    1
     4     2    14    1
     5    23    14   ar
     6    23    21   ar
     7    22    21    1
     8    13    12    1
     9     3    12   ar
    10     3     4   ar
    11     5     4    1
    12    14    15   ar
    13    12    10   ar
    14    21    19   ar
    15     4     6   ar
    16    10    11    1
    17    10     8   ar
    18     6     8   ar
    19     6     7    1
    20     8     9    1
    21    15    16    1
    22    15    17   ar
    23    19    20    1
    24    19    17   ar
    25    17    18    1
