@<TRIPOS>MOLECULE
2
 14 14 0 0 0
SMALL
GASTEIGER

@<TRIPOS>ATOM
      1 CL          1.5035    2.9692    5.4053 Cl      1  UNL1        0.0000
      2 SI          2.6644    1.2305    5.4835 Si      1  UNL1        0.0000
      3 H           3.9072    1.7778    6.1263 H       1  UNL1        0.0000
      4 C           2.0090    0.3376    7.0472 C.ar    1  UNL1        0.0000
      5 C           0.8075    0.6806    7.6573 C.ar    1  UNL1        0.0000
      6 H           0.2027    1.4648    7.2279 H       1  UNL1        0.0000
      7 C           0.3841    0.0479    8.8132 C.ar    1  UNL1        0.0000
      8 H          -0.5541    0.3317    9.2686 H       1  UNL1        0.0000
      9 C           1.1609   -0.9442    9.3868 C.ar    1  UNL1        0.0000
     10 H           0.8299   -1.4442   10.2858 H       1  UNL1        0.0000
     11 C           2.3737   -1.2790    8.8080 C.ar    1  UNL1        0.0000
     12 H           2.9980   -2.0386    9.2575 H       1  UNL1        0.0000
     13 C           2.7919   -0.6381    7.6561 C.ar    1  UNL1        0.0000
     14 H           3.7449   -0.8996    7.2217 H       1  UNL1        0.0000
@<TRIPOS>BOND
     1     1     2    1
     2     2     3    1
     3     2     4    1
     4     4    13   ar
     5     4     5   ar
     6    14    13    1
     7     6     5    1
     8    13    11   ar
     9     5     7   ar
    10    11    12    1
    11    11     9   ar
    12     7     8    1
    13     7     9   ar
    14     9    10    1
