@<TRIPOS>MOLECULE
2
 63 63 0 0 0
SMALL
GASTEIGER

@<TRIPOS>ATOM
      1 H           3.7770   -0.9531    4.8624 H       1  UNL1        0.0000
      2 SI          2.3960   -0.6283    4.3407 Si      1  UNL1        0.0000
      3 C           3.0460    0.8277    3.1819 C.3     1  UNL1        0.0000
      4 N           2.2885    1.4832    2.2917 N.pl3   1  UNL1        0.0000
      5 C           2.9103    2.6360    1.8789 C.2     1  UNL1        0.0000
      6 C           4.1026    2.6879    2.5334 C.2     1  UNL1        0.0000
      7 N           4.1604    1.5664    3.3323 N.pl3   1  UNL1        0.0000
      8 C           0.9436    1.1513    1.9311 C.3     1  UNL1        0.0000
      9 H           0.7521    0.1232    2.2059 H       1  UNL1        0.0000
     10 H           0.7964    1.2888    0.8610 H       1  UNL1        0.0000
     11 H           0.2422    1.7982    2.4633 H       1  UNL1        0.0000
     12 C           2.2770    3.5819    0.9282 C.3     1  UNL1        0.0000
     13 H           2.9346    4.4253    0.7417 H       1  UNL1        0.0000
     14 H           1.3427    3.9541    1.3462 H       1  UNL1        0.0000
     15 H           2.0583    3.0944   -0.0216 H       1  UNL1        0.0000
     16 C           5.1943    3.6926    2.4912 C.3     1  UNL1        0.0000
     17 H           4.9448    4.4828    1.7899 H       1  UNL1        0.0000
     18 H           6.1332    3.2355    2.1789 H       1  UNL1        0.0000
     19 H           5.3435    4.1394    3.4737 H       1  UNL1        0.0000
     20 C           5.2855    1.3069    4.1822 C.3     1  UNL1        0.0000
     21 H           5.1360    0.3650    4.6983 H       1  UNL1        0.0000
     22 H           5.3902    2.1088    4.9153 H       1  UNL1        0.0000
     23 H           6.1998    1.2540    3.5882 H       1  UNL1        0.0000
     24 C           2.2224   -2.2692    3.1909 C.3     1  UNL1        0.0000
     25 SI          3.0770   -2.1079    1.4572 Si      1  UNL1        0.0000
     26 SI          3.1537   -3.6762    4.1648 Si      1  UNL1        0.0000
     27 SI          0.3652   -2.8502    3.0209 Si      1  UNL1        0.0000
     28 C           2.0258   -1.2792    0.0813 C.3     1  UNL1        0.0000
     29 H           0.9646   -1.3067    0.2914 H       1  UNL1        0.0000
     30 H           2.1783   -1.7963   -0.8608 H       1  UNL1        0.0000
     31 H           2.3131   -0.2460   -0.0770 H       1  UNL1        0.0000
     32 C           3.6010   -3.7652    0.6483 C.3     1  UNL1        0.0000
     33 H           2.7628   -4.4395    0.5244 H       1  UNL1        0.0000
     34 H           4.3607   -4.2816    1.2232 H       1  UNL1        0.0000
     35 H           4.0146   -3.5816   -0.3404 H       1  UNL1        0.0000
     36 C           4.7200   -1.1157    1.5173 C.3     1  UNL1        0.0000
     37 H           5.4682   -1.5763    0.8796 H       1  UNL1        0.0000
     38 H           5.1231   -1.0800    2.5199 H       1  UNL1        0.0000
     39 H           4.5926   -0.0956    1.1714 H       1  UNL1        0.0000
     40 C           5.0630   -3.5047    4.1149 C.3     1  UNL1        0.0000
     41 H           5.3955   -2.5914    4.5948 H       1  UNL1        0.0000
     42 H           5.4528   -3.5046    3.1047 H       1  UNL1        0.0000
     43 H           5.5267   -4.3327    4.6436 H       1  UNL1        0.0000
     44 C           2.8317   -5.4757    3.6000 C.3     1  UNL1        0.0000
     45 H           3.3943   -6.1609    4.2281 H       1  UNL1        0.0000
     46 H           3.1341   -5.6555    2.5772 H       1  UNL1        0.0000
     47 H           1.7861   -5.7446    3.6854 H       1  UNL1        0.0000
     48 C           2.6941   -3.6579    6.0187 C.3     1  UNL1        0.0000
     49 H           2.1629   -4.5560    6.3144 H       1  UNL1        0.0000
     50 H           2.0604   -2.8097    6.2453 H       1  UNL1        0.0000
     51 H           3.5839   -3.5971    6.6380 H       1  UNL1        0.0000
     52 C          -0.3103   -3.7288    4.5745 C.3     1  UNL1        0.0000
     53 H          -0.3070   -3.0461    5.4161 H       1  UNL1        0.0000
     54 H           0.2549   -4.6080    4.8553 H       1  UNL1        0.0000
     55 H          -1.3391   -4.0382    4.4136 H       1  UNL1        0.0000
     56 C          -0.9692   -1.5210    2.6808 C.3     1  UNL1        0.0000
     57 H          -1.9470   -1.9809    2.7926 H       1  UNL1        0.0000
     58 H          -0.9380   -1.1071    1.6784 H       1  UNL1        0.0000
     59 H          -0.9185   -0.7103    3.4020 H       1  UNL1        0.0000
     60 C           0.1510   -4.0947    1.5802 C.3     1  UNL1        0.0000
     61 H           0.7652   -4.9769    1.7074 H       1  UNL1        0.0000
     62 H           0.3996   -3.6555    0.6216 H       1  UNL1        0.0000
     63 H          -0.8817   -4.4260    1.5262 H       1  UNL1        0.0000
@<TRIPOS>BOND
     1    30    28    1
     2    35    32    1
     3    31    28    1
     4    15    12    1
     5    28    29    1
     6    28    25    1
     7    33    32    1
     8    62    60    1
     9    32    34    1
    10    32    25    1
    11    13    12    1
    12    10     8    1
    13    37    36    1
    14    12    14    1
    15    12     5    1
    16    39    36    1
    17    25    36    1
    18    25    24    1
    19    36    38    1
    20    63    60    1
    21    60    61    1
    22    60    27    1
    23    58    56    1
    24    17    16    1
    25     5     4    1
    26     5     6    2
    27     8     9    1
    28     8     4    1
    29     8    11    1
    30    18    16    1
    31     4     3    1
    32    16     6    1
    33    16    19    1
    34     6     7    1
    35    46    44    1
    36    56    57    1
    37    56    27    1
    38    56    59    1
    39    27    24    1
    40    27    52    1
    41    42    40    1
    42     3     7    1
    43     3     2    1
    44    24    26    1
    45    24     2    1
    46     7    20    1
    47    23    20    1
    48    44    47    1
    49    44    26    1
    50    44    45    1
    51    40    26    1
    52    40    41    1
    53    40    43    1
    54    26    48    1
    55    20    21    1
    56    20    22    1
    57     2     1    1
    58    55    52    1
    59    52    54    1
    60    52    53    1
    61    48    50    1
    62    48    49    1
    63    48    51    1
