@<TRIPOS>MOLECULE
1
 33 34 0 0 0
SMALL
GASTEIGER

@<TRIPOS>ATOM
      1 SI         -3.2633    9.1631   11.6689 Si      1  UNL1        0.0000
      2 N          -3.3821    7.8711   10.4874 N.pl3   1  UNL1        0.0000
      3 N          -2.9911   10.2894   10.3611 N.pl3   1  UNL1        0.0000
      4 C          -3.6292    6.4554   10.7195 C.3     1  UNL1        0.0000
      5 C          -5.0712    6.1159   10.3176 C.3     1  UNL1        0.0000
      6 H          -5.7688    6.6103   10.9906 H       1  UNL1        0.0000
      7 H          -5.2377    5.0429   10.3722 H       1  UNL1        0.0000
      8 H          -5.2757    6.4497    9.3031 H       1  UNL1        0.0000
      9 C          -3.4290    6.1049   12.1964 C.3     1  UNL1        0.0000
     10 H          -2.3864    6.2493   12.4863 H       1  UNL1        0.0000
     11 H          -3.6829    5.0590   12.3616 H       1  UNL1        0.0000
     12 H          -4.0966    6.7058   12.8504 H       1  UNL1        0.0000
     13 C          -2.6403    5.6052    9.9042 C.3     1  UNL1        0.0000
     14 H          -1.6271    5.9749   10.0463 H       1  UNL1        0.0000
     15 H          -2.8715    5.6291    8.8431 H       1  UNL1        0.0000
     16 H          -2.6827    4.5701   10.2335 H       1  UNL1        0.0000
     17 C          -3.2576    8.3449    9.1989 C.2     1  UNL1        0.0000
     18 H          -3.3382    7.6913    8.3518 H       1  UNL1        0.0000
     19 C          -3.0315    9.6617    9.1312 C.2     1  UNL1        0.0000
     20 H          -2.8917   10.2141    8.2222 H       1  UNL1        0.0000
     21 C          -2.6562   11.7016   10.4234 C.3     1  UNL1        0.0000
     22 C          -3.6084   12.5206    9.5399 C.3     1  UNL1        0.0000
     23 H          -4.6398   12.3116    9.8143 H       1  UNL1        0.0000
     24 H          -3.4796   12.2891    8.4866 H       1  UNL1        0.0000
     25 H          -3.4214   13.5826    9.6783 H       1  UNL1        0.0000
     26 C          -1.2062   11.9000    9.9602 C.3     1  UNL1        0.0000
     27 H          -0.5337   11.3566   10.6200 H       1  UNL1        0.0000
     28 H          -0.9416   12.9541    9.9824 H       1  UNL1        0.0000
     29 H          -1.0669   11.5289    8.9482 H       1  UNL1        0.0000
     30 C          -2.7872   12.2040   11.8590 C.3     1  UNL1        0.0000
     31 H          -3.8134   12.1053   12.2014 H       1  UNL1        0.0000
     32 H          -2.5027   13.2525   11.9117 H       1  UNL1        0.0000
     33 H          -2.1475   11.6332   12.5262 H       1  UNL1        0.0000
@<TRIPOS>BOND
     1    20    19    1
     2    18    17    1
     3    24    22    1
     4    15    13    1
     5    29    26    1
     6    19    17    2
     7    19     3    1
     8    17     2    1
     9     8     5    1
    10    22    25    1
    11    22    23    1
    12    22    21    1
    13    13    14    1
    14    13    16    1
    15    13     4    1
    16    26    28    1
    17    26    21    1
    18    26    27    1
    19     5     7    1
    20     5     4    1
    21     5     6    1
    22     3    21    1
    23     3     1    1
    24    21    30    1
    25     2     4    1
    26     2     1    1
    27     4     9    1
    28    30    32    1
    29    30    31    1
    30    30    33    1
    31     9    11    1
    32     9    10    1
    33     9    12    1
    34     1    19    0
