@<TRIPOS>MOLECULE
1
 23 24 0 0 0
SMALL
GASTEIGER

@<TRIPOS>ATOM
      1 SI         -2.7001    7.6501   10.5176 Si      1  UNL1        0.0000
      2 C          -2.4575    8.6433    8.8895 C.ar    1  UNL1        0.0000
      3 C          -1.8392    9.8898    8.8815 C.ar    1  UNL1        0.0000
      4 H          -1.4974   10.3210    9.8145 H       1  UNL1        0.0000
      5 C          -1.6524   10.5890    7.7028 C.ar    1  UNL1        0.0000
      6 H          -1.1709   11.5570    7.7186 H       1  UNL1        0.0000
      7 C          -2.0787   10.0460    6.5025 C.ar    1  UNL1        0.0000
      8 H          -1.9275   10.5859    5.5788 H       1  UNL1        0.0000
      9 C          -2.7038    8.8102    6.4925 C.ar    1  UNL1        0.0000
     10 H          -3.0457    8.3855    5.5591 H       1  UNL1        0.0000
     11 C          -2.8930    8.1207    7.6763 C.ar    1  UNL1        0.0000
     12 H          -3.3954    7.1622    7.6641 H       1  UNL1        0.0000
     13 C          -4.5346    8.1616   10.7916 C.ar    1  UNL1        0.0000
     14 C          -5.4855    7.1967   11.1095 C.ar    1  UNL1        0.0000
     15 H          -5.1806    6.1638   11.1977 H       1  UNL1        0.0000
     16 C          -6.8097    7.5394   11.3082 C.ar    1  UNL1        0.0000
     17 H          -7.5344    6.7730   11.5434 H       1  UNL1        0.0000
     18 C          -7.2051    8.8624   11.2113 C.ar    1  UNL1        0.0000
     19 H          -8.2390    9.1340   11.3700 H       1  UNL1        0.0000
     20 C          -6.2690    9.8379   10.9109 C.ar    1  UNL1        0.0000
     21 H          -6.5723   10.8730   10.8371 H       1  UNL1        0.0000
     22 C          -4.9490    9.4883   10.6977 C.ar    1  UNL1        0.0000
     23 H          -4.2284   10.2566   10.4527 H       1  UNL1        0.0000
@<TRIPOS>BOND
     1    10     9    1
     2     8     7    1
     3     9     7   ar
     4     9    11   ar
     5     7     5   ar
     6    12    11    1
     7    11     2   ar
     8     5     6    1
     9     5     3   ar
    10     3     2   ar
    11     3     4    1
    12     2     1    1
    13    23    22    1
    14     1    13    1
    15    22    13   ar
    16    22    20   ar
    17    13    14   ar
    18    21    20    1
    19    20    18   ar
    20    14    15    1
    21    14    16   ar
    22    18    16   ar
    23    18    19    1
    24    16    17    1
