@<TRIPOS>MOLECULE
1
 24 25 0 0 0
SMALL
GASTEIGER

@<TRIPOS>ATOM
      1 SI          6.3944   18.1236    4.2729 Si      1  UNL1        0.0000
      2 C           7.4352   18.8639    2.8391 C.ar    1  UNL1        0.0000
      3 C           8.8163   18.7097    2.8236 C.ar    1  UNL1        0.0000
      4 H           9.2907   18.1630    3.6256 H       1  UNL1        0.0000
      5 C           9.5939   19.2340    1.8077 C.ar    1  UNL1        0.0000
      6 H          10.6667   19.0950    1.8218 H       1  UNL1        0.0000
      7 C           9.0028   19.9426    0.7754 C.ar    1  UNL1        0.0000
      8 H           9.6063   20.3585   -0.0197 H       1  UNL1        0.0000
      9 C           7.6304   20.1180    0.7755 C.ar    1  UNL1        0.0000
     10 H           7.1534   20.6735   -0.0219 H       1  UNL1        0.0000
     11 C           6.8635   19.5779    1.7939 C.ar    1  UNL1        0.0000
     12 H           5.7921   19.7212    1.7621 H       1  UNL1        0.0000
     13 C           5.8425   19.7314    5.1722 C.ar    1  UNL1        0.0000
     14 C           6.1815   19.9530    6.5015 C.ar    1  UNL1        0.0000
     15 H           6.7937   19.2278    7.0149 H       1  UNL1        0.0000
     16 C           5.7595   21.0819    7.1799 C.ar    1  UNL1        0.0000
     17 H           6.0288   21.2190    8.2186 H       1  UNL1        0.0000
     18 C           4.9981   22.0382    6.5295 C.ar    1  UNL1        0.0000
     19 H           4.6678   22.9240    7.0543 H       1  UNL1        0.0000
     20 C           4.6755   21.8527    5.1963 C.ar    1  UNL1        0.0000
     21 H           4.0976   22.6008    4.6691 H       1  UNL1        0.0000
     22 C           5.0887   20.7095    4.5357 C.ar    1  UNL1        0.0000
     23 H           4.8204   20.5874    3.4969 H       1  UNL1        0.0000
     24 H           7.5492   17.7549    5.1741 H       1  UNL1        0.0000
@<TRIPOS>BOND
     1    10     9    1
     2     8     7    1
     3     7     9   ar
     4     7     5   ar
     5     9    11   ar
     6    12    11    1
     7    11     2   ar
     8     5     6    1
     9     5     3   ar
    10     3     2   ar
    11     3     4    1
    12     2     1    1
    13    23    22    1
    14     1    13    1
    15     1    24    1
    16    22    13   ar
    17    22    20   ar
    18    21    20    1
    19    13    14   ar
    20    20    18   ar
    21    14    15    1
    22    14    16   ar
    23    18    19    1
    24    18    16   ar
    25    16    17    1
