@<TRIPOS>MOLECULE
1
 75 77 0 0 0
SMALL
GASTEIGER

@<TRIPOS>ATOM
      1 SI          8.6805   10.8336   12.6501 Si      1  UNL1        0.0000
      2 H           8.9732   12.3137   12.8017 H       1  UNL1        0.0000
      3 C           9.1045   10.7691   10.7758 C.ar    1  UNL1        0.0000
      4 C          10.3902   10.4708   10.3094 C.ar    1  UNL1        0.0000
      5 C          10.6810   10.3744    8.9514 C.ar    1  UNL1        0.0000
      6 C           9.6784   10.4853    8.0062 C.ar    1  UNL1        0.0000
      7 H           9.8710   10.3284    6.9555 H       1  UNL1        0.0000
      8 C           8.4122   10.8216    8.4436 C.ar    1  UNL1        0.0000
      9 C           8.1320   10.9871    9.7947 C.ar    1  UNL1        0.0000
     10 C          11.6322   10.2027   11.1379 C.3     1  UNL1        0.0000
     11 C          12.7635   10.0733   10.0861 C.3     1  UNL1        0.0000
     12 H          13.4996   10.8654   10.2215 H       1  UNL1        0.0000
     13 H          13.2861    9.1270   10.2175 H       1  UNL1        0.0000
     14 C          12.1479   10.1489    8.6699 C.3     1  UNL1        0.0000
     15 C           7.2086   11.0418    7.5614 C.3     1  UNL1        0.0000
     16 C           6.1931   11.6691    8.5345 C.3     1  UNL1        0.0000
     17 H           5.1998   11.2483    8.3866 H       1  UNL1        0.0000
     18 H           6.1190   12.7391    8.3486 H       1  UNL1        0.0000
     19 C           6.6881   11.4184    9.9829 C.3     1  UNL1        0.0000
     20 C          11.8357   12.7252   11.5542 C.3     1  UNL1        0.0000
     21 H          12.5818   12.8834   10.7771 H       1  UNL1        0.0000
     22 H          11.9949   13.4673   12.3337 H       1  UNL1        0.0000
     23 H          10.8530   12.8863   11.1206 H       1  UNL1        0.0000
     24 C          11.9371   11.3238   12.1436 C.3     1  UNL1        0.0000
     25 H          11.2486   11.2381   12.9837 H       1  UNL1        0.0000
     26 H          12.9475   11.1790   12.5322 H       1  UNL1        0.0000
     27 C          11.4711    8.8595   11.8759 C.3     1  UNL1        0.0000
     28 H          10.5468    8.8784   12.4565 H       1  UNL1        0.0000
     29 H          11.3801    8.0740   11.1191 H       1  UNL1        0.0000
     30 C          12.6186    8.5258   12.8245 C.3     1  UNL1        0.0000
     31 H          13.5907    8.6877   12.3601 H       1  UNL1        0.0000
     32 H          12.5601    7.4818   13.1244 H       1  UNL1        0.0000
     33 H          12.5543    9.1351   13.7212 H       1  UNL1        0.0000
     34 C          13.7682    8.4867    7.5306 C.3     1  UNL1        0.0000
     35 H          14.1638    9.1918    6.8038 H       1  UNL1        0.0000
     36 H          13.8130    7.4902    7.0931 H       1  UNL1        0.0000
     37 H          14.4135    8.5012    8.4059 H       1  UNL1        0.0000
     38 C          12.3286    8.8256    7.9046 C.3     1  UNL1        0.0000
     39 H          11.9254    8.0265    8.5317 H       1  UNL1        0.0000
     40 H          11.7236    8.8517    6.9961 H       1  UNL1        0.0000
     41 C          12.7748   11.3507    7.9292 C.3     1  UNL1        0.0000
     42 H          12.5411   12.2470    8.5091 H       1  UNL1        0.0000
     43 H          13.8611   11.2248    7.9439 H       1  UNL1        0.0000
     44 C          12.3354   11.5944    6.4895 C.3     1  UNL1        0.0000
     45 H          12.4852   10.7141    5.8693 H       1  UNL1        0.0000
     46 H          12.9222   12.4090    6.0654 H       1  UNL1        0.0000
     47 H          11.2892   11.8801    6.4461 H       1  UNL1        0.0000
     48 C           8.2752   13.2284    6.7057 C.3     1  UNL1        0.0000
     49 H           7.6494   13.9124    7.2726 H       1  UNL1        0.0000
     50 H           8.5879   13.7376    5.7949 H       1  UNL1        0.0000
     51 H           9.1561   13.0045    7.3015 H       1  UNL1        0.0000
     52 C           7.5222   11.9488    6.3572 C.3     1  UNL1        0.0000
     53 H           8.1227   11.3768    5.6447 H       1  UNL1        0.0000
     54 H           6.5862   12.2151    5.8600 H       1  UNL1        0.0000
     55 C           6.7462    9.6584    7.0534 C.3     1  UNL1        0.0000
     56 H           7.5897    9.1793    6.5490 H       1  UNL1        0.0000
     57 H           6.5039    9.0439    7.9223 H       1  UNL1        0.0000
     58 C           5.5512    9.6705    6.1054 C.3     1  UNL1        0.0000
     59 H           4.7108   10.2080    6.5387 H       1  UNL1        0.0000
     60 H           5.2306    8.6495    5.9039 H       1  UNL1        0.0000
     61 H           5.8045   10.1371    5.1564 H       1  UNL1        0.0000
     62 C           4.4333   10.6332   10.9647 C.3     1  UNL1        0.0000
     63 H           4.3922   11.3045   11.8177 H       1  UNL1        0.0000
     64 H           3.8815    9.7316   11.2217 H       1  UNL1        0.0000
     65 H           3.9269   11.1074   10.1251 H       1  UNL1        0.0000
     66 C           5.8791   10.2781   10.6294 C.3     1  UNL1        0.0000
     67 H           5.8883    9.4257    9.9453 H       1  UNL1        0.0000
     68 H           6.3814    9.9763   11.5498 H       1  UNL1        0.0000
     69 C           6.5549   12.6872   10.8421 C.3     1  UNL1        0.0000
     70 H           5.5412   13.0793   10.7284 H       1  UNL1        0.0000
     71 H           6.6876   12.4089   11.8877 H       1  UNL1        0.0000
     72 C           7.5468   13.7911   10.4971 C.3     1  UNL1        0.0000
     73 H           8.5634   13.4112   10.5208 H       1  UNL1        0.0000
     74 H           7.4629   14.6012   11.2186 H       1  UNL1        0.0000
     75 H           7.3610   14.2006    9.5066 H       1  UNL1        0.0000
@<TRIPOS>BOND
     1    61    58    1
     2    53    52    1
     3    50    48    1
     4    54    52    1
     5    45    44    1
     6    60    58    1
     7    46    44    1
     8    58    59    1
     9    58    55    1
    10    52    48    1
    11    52    15    1
    12    47    44    1
    13    44    41    1
    14    56    55    1
    15    48    49    1
    16    48    51    1
    17    35    34    1
    18     7     6    1
    19    40    38    1
    20    55    15    1
    21    55    57    1
    22    36    34    1
    23    34    38    1
    24    34    37    1
    25    15     8    1
    26    15    16    1
    27    38    39    1
    28    38    14    1
    29    41    43    1
    30    41    42    1
    31    41    14    1
    32     6     8   ar
    33     6     5   ar
    34    18    16    1
    35    17    16    1
    36     8     9   ar
    37    16    19    1
    38    14     5    1
    39    14    11    1
    40     5     4   ar
    41    75    72    1
    42     9    19    1
    43     9     3   ar
    44    67    66    1
    45    19    66    1
    46    19    69    1
    47    11    13    1
    48    11    12    1
    49    11    10    1
    50    65    62    1
    51     4     3   ar
    52     4    10    1
    53    72    73    1
    54    72    69    1
    55    72    74    1
    56    66    62    1
    57    66    68    1
    58    70    69    1
    59     3     1    1
    60    21    20    1
    61    69    71    1
    62    62    64    1
    63    62    63    1
    64    29    27    1
    65    23    20    1
    66    10    27    1
    67    10    24    1
    68    20    24    1
    69    20    22    1
    70    27    28    1
    71    27    30    1
    72    24    26    1
    73    24    25    1
    74    31    30    1
    75     1     2    1
    76    30    32    1
    77    30    33    1
