@<TRIPOS>MOLECULE
1
 34 36 0 0 0
SMALL
GASTEIGER

@<TRIPOS>ATOM
      1 SI          1.3360    7.2092    4.8005 Si      1  UNL1        0.0000
      2 C           2.5135    7.8913    3.4683 C.ar    1  UNL1        0.0000
      3 C           2.4887    7.3837    2.1699 C.ar    1  UNL1        0.0000
      4 C           3.3269    7.8835    1.1918 C.ar    1  UNL1        0.0000
      5 C           4.2091    8.9087    1.4915 C.ar    1  UNL1        0.0000
      6 C           4.2439    9.4284    2.7743 C.ar    1  UNL1        0.0000
      7 C           3.4049    8.9236    3.7518 C.ar    1  UNL1        0.0000
      8 C          -0.4131    7.8556    4.3995 C.ar    1  UNL1        0.0000
      9 C          -1.5494    7.0537    4.4451 C.ar    1  UNL1        0.0000
     10 C          -2.8026    7.5744    4.1770 C.ar    1  UNL1        0.0000
     11 C          -2.9437    8.9138    3.8570 C.ar    1  UNL1        0.0000
     12 C          -1.8231    9.7262    3.8018 C.ar    1  UNL1        0.0000
     13 C          -0.5724    9.2011    4.0685 C.ar    1  UNL1        0.0000
     14 C           1.8162    7.7986    6.5472 C.ar    1  UNL1        0.0000
     15 C           0.8688    8.3564    7.4036 C.ar    1  UNL1        0.0000
     16 C           1.2029    8.7216    8.6955 C.ar    1  UNL1        0.0000
     17 C           2.4941    8.5347    9.1588 C.ar    1  UNL1        0.0000
     18 C           3.4496    7.9834    8.3205 C.ar    1  UNL1        0.0000
     19 C           3.1121    7.6186    7.0313 C.ar    1  UNL1        0.0000
     20 H           1.8110    6.5774    1.9277 H       1  UNL1        0.0000
     21 H           3.2940    7.4690    0.1939 H       1  UNL1        0.0000
     22 H           4.8674    9.3002    0.7290 H       1  UNL1        0.0000
     23 H           4.9291   10.2294    3.0139 H       1  UNL1        0.0000
     24 H           3.4392    9.3359    4.7502 H       1  UNL1        0.0000
     25 H          -1.4416    6.0073    4.6900 H       1  UNL1        0.0000
     26 H          -3.6733    6.9350    4.2177 H       1  UNL1        0.0000
     27 H          -3.9219    9.3237    3.6496 H       1  UNL1        0.0000
     28 H          -1.9261   10.7723    3.5503 H       1  UNL1        0.0000
     29 H           0.2977    9.8403    4.0222 H       1  UNL1        0.0000
     30 H          -0.1421    8.5038    7.0509 H       1  UNL1        0.0000
     31 H           0.4526    9.1507    9.3449 H       1  UNL1        0.0000
     32 H           2.7554    8.8160   10.1692 H       1  UNL1        0.0000
     33 H           4.4586    7.8332    8.6777 H       1  UNL1        0.0000
     34 H           3.8580    7.1764    6.3868 H       1  UNL1        0.0000
@<TRIPOS>BOND
     1    21     4    1
     2    22     5    1
     3     4     5   ar
     4     4     3   ar
     5     5     6   ar
     6    20     3    1
     7     3     2   ar
     8     6    23    1
     9     6     7   ar
    10     2     7   ar
    11     2     1    1
    12    28    12    1
    13    27    11    1
    14     7    24    1
    15    12    11   ar
    16    12    13   ar
    17    11    10   ar
    18    29    13    1
    19    13     8   ar
    20    10    26    1
    21    10     9   ar
    22     8     9   ar
    23     8     1    1
    24     9    25    1
    25     1    14    1
    26    34    19    1
    27    14    19   ar
    28    14    15   ar
    29    19    18   ar
    30    30    15    1
    31    15    16   ar
    32    18    33    1
    33    18    17   ar
    34    16    17   ar
    35    16    31    1
    36    17    32    1
