@<TRIPOS>MOLECULE
1
 20 19 0 0 0
SMALL
GASTEIGER

@<TRIPOS>ATOM
      1 SI          0.4275    2.9313    1.3807 Si      1  UNL1        0.0000
      2 C          -1.2449    5.3509    1.1137 C.2     1  UNL1        0.0000
      3 C          -0.6771    4.4254    1.8804 C.2     1  UNL1        0.0000
      4 H          -0.8955    4.4935    2.9426 H       1  UNL1        0.0000
      5 C          -2.1283    6.4331    1.6769 C.3     1  UNL1        0.0000
      6 H          -2.2520    6.3266    2.7523 H       1  UNL1        0.0000
      7 H          -3.1118    6.3968    1.2086 H       1  UNL1        0.0000
      8 H          -1.7040    7.4173    1.4717 H       1  UNL1        0.0000
      9 C          -1.0906    5.4081   -0.3739 C.3     1  UNL1        0.0000
     10 H          -0.2638    4.7862   -0.6961 H       1  UNL1        0.0000
     11 H          -0.9201    6.4340   -0.7004 H       1  UNL1        0.0000
     12 H          -2.0032    5.0549   -0.8540 H       1  UNL1        0.0000
     13 C           0.2255    1.9032    3.0227 C.3     1  UNL1        0.0000
     14 H          -0.8298    1.7445    3.2224 H       1  UNL1        0.0000
     15 H           0.6473    2.4087    3.8853 H       1  UNL1        0.0000
     16 H           0.6897    0.9252    2.9539 H       1  UNL1        0.0000
     17 C          -0.7364    1.9186    0.2074 C.3     1  UNL1        0.0000
     18 H          -1.7707    2.0333    0.5148 H       1  UNL1        0.0000
     19 H          -0.4988    0.8605    0.2354 H       1  UNL1        0.0000
     20 H          -0.6551    2.2473   -0.8207 H       1  UNL1        0.0000
@<TRIPOS>BOND
     1    12     9    1
     2    20    17    1
     3    11     9    1
     4    10     9    1
     5     9     2    1
     6    17    19    1
     7    17    18    1
     8    17     1    1
     9     2     5    1
    10     2     3    2
    11     7     5    1
    12     1     3    1
    13     1    13    1
    14     8     5    1
    15     5     6    1
    16     3     4    1
    17    16    13    1
    18    13    14    1
    19    13    15    1
