@<TRIPOS>MOLECULE
1
 42 41 0 0 0
SMALL
GASTEIGER

@<TRIPOS>ATOM
      1 SI          5.4182    6.6833   15.6616 Si      1  UNL1        0.0000
      2 H           4.4349    7.0239   14.5544 H       1  UNL1        0.0000
      3 SI          3.3251    8.5870   16.9325 Si      1  UNL1        0.0000
      4 SI          5.1655    6.7517   18.8275 Si      1  UNL1        0.0000
      5 SI          2.9233    5.3917   16.9975 Si      1  UNL1        0.0000
      6 C           4.1874    6.8597   17.1449 C.3     1  UNL1        0.0000
      7 C           4.6033    9.8630   16.3005 C.3     1  UNL1        0.0000
      8 H           4.3086   10.8772   16.5522 H       1  UNL1        0.0000
      9 H           4.6941    9.8125   15.2205 H       1  UNL1        0.0000
     10 H           5.5890    9.6953   16.7167 H       1  UNL1        0.0000
     11 C           2.5222    9.2608   18.5268 C.3     1  UNL1        0.0000
     12 H           2.0244   10.2050   18.3267 H       1  UNL1        0.0000
     13 H           3.2541    9.4369   19.3059 H       1  UNL1        0.0000
     14 H           1.7767    8.5787   18.9185 H       1  UNL1        0.0000
     15 C           1.9362    8.6128   15.6164 C.3     1  UNL1        0.0000
     16 H           2.3013    8.3080   14.6420 H       1  UNL1        0.0000
     17 H           1.5414    9.6192   15.5101 H       1  UNL1        0.0000
     18 H           1.1072    7.9653   15.8763 H       1  UNL1        0.0000
     19 C           6.1993    8.3368   19.0786 C.3     1  UNL1        0.0000
     20 H           6.9384    8.4351   18.2898 H       1  UNL1        0.0000
     21 H           6.7400    8.2877   20.0187 H       1  UNL1        0.0000
     22 H           5.6012    9.2403   19.0937 H       1  UNL1        0.0000
     23 C           4.0242    6.5540   20.3497 C.3     1  UNL1        0.0000
     24 H           3.2506    7.3095   20.3995 H       1  UNL1        0.0000
     25 H           4.6094    6.6286   21.2614 H       1  UNL1        0.0000
     26 H           3.5417    5.5828   20.3569 H       1  UNL1        0.0000
     27 C           6.3944    5.2973   18.9190 C.3     1  UNL1        0.0000
     28 H           7.2461    5.5714   19.5338 H       1  UNL1        0.0000
     29 H           6.7809    5.0308   17.9378 H       1  UNL1        0.0000
     30 H           5.9540    4.4105   19.3597 H       1  UNL1        0.0000
     31 C           1.3476    5.6829   18.0385 C.3     1  UNL1        0.0000
     32 H           1.5825    5.9040   19.0722 H       1  UNL1        0.0000
     33 H           0.7228    4.7947   18.0293 H       1  UNL1        0.0000
     34 H           0.7519    6.5032   17.6543 H       1  UNL1        0.0000
     35 C           3.7294    3.7541   17.5406 C.3     1  UNL1        0.0000
     36 H           3.1325    2.9067   17.2179 H       1  UNL1        0.0000
     37 H           3.8306    3.6870   18.6169 H       1  UNL1        0.0000
     38 H           4.7177    3.6454   17.1067 H       1  UNL1        0.0000
     39 C           2.3576    5.0623   15.2012 C.3     1  UNL1        0.0000
     40 H           1.5631    4.3220   15.1850 H       1  UNL1        0.0000
     41 H           3.1771    4.6719   14.6069 H       1  UNL1        0.0000
     42 H           1.9822    5.9487   14.7063 H       1  UNL1        0.0000
@<TRIPOS>BOND
     1     2     1    1
     2    41    39    1
     3    16    15    1
     4    42    39    1
     5    40    39    1
     6    39     5    1
     7     9     7    1
     8    17    15    1
     9    15    18    1
    10    15     3    1
    11     1     6    1
    12     7     8    1
    13     7    10    1
    14     7     3    1
    15     3     6    1
    16     3    11    1
    17     5     6    1
    18     5    35    1
    19     5    31    1
    20    38    35    1
    21     6     4    1
    22    36    35    1
    23    35    37    1
    24    34    31    1
    25    29    27    1
    26    33    31    1
    27    31    32    1
    28    20    19    1
    29    12    11    1
    30    11    14    1
    31    11    13    1
    32     4    27    1
    33     4    19    1
    34     4    23    1
    35    27    30    1
    36    27    28    1
    37    19    22    1
    38    19    21    1
    39    23    26    1
    40    23    24    1
    41    23    25    1
