@<TRIPOS>MOLECULE
1
 43 42 0 0 0
SMALL
GASTEIGER

@<TRIPOS>ATOM
      1 SI          1.4539    5.6384    7.4951 Si      1  UNL1        0.0000
      2 H           2.6340    6.4425    8.0042 H       1  UNL1        0.0000
      3 H           2.1495    5.0392    6.3070 H       1  UNL1        0.0000
      4 SI         -0.8093    6.1367    5.3582 Si      1  UNL1        0.0000
      5 SI          1.6277    8.1620    5.7230 Si      1  UNL1        0.0000
      6 SI         -0.6522    8.0003    7.9224 Si      1  UNL1        0.0000
      7 C           0.3622    7.0043    6.6151 C.3     1  UNL1        0.0000
      8 C           0.1103    5.3908    3.8549 C.3     1  UNL1        0.0000
      9 H           0.9385    4.7641    4.1634 H       1  UNL1        0.0000
     10 H           0.5042    6.1667    3.2083 H       1  UNL1        0.0000
     11 H          -0.5583    4.7794    3.2553 H       1  UNL1        0.0000
     12 C          -2.1320    7.2880    4.5965 C.3     1  UNL1        0.0000
     13 H          -2.9022    6.7049    4.1003 H       1  UNL1        0.0000
     14 H          -1.7047    7.9556    3.8584 H       1  UNL1        0.0000
     15 H          -2.6183    7.8991    5.3469 H       1  UNL1        0.0000
     16 C          -1.7458    4.6782    6.1680 C.3     1  UNL1        0.0000
     17 H          -1.9958    3.9143    5.4366 H       1  UNL1        0.0000
     18 H          -2.6752    5.0017    6.6214 H       1  UNL1        0.0000
     19 H          -1.1455    4.2167    6.9519 H       1  UNL1        0.0000
     20 C           3.0379    7.2747    4.7805 C.3     1  UNL1        0.0000
     21 H           2.6702    6.5080    4.1109 H       1  UNL1        0.0000
     22 H           3.7284    6.8045    5.4710 H       1  UNL1        0.0000
     23 H           3.6023    7.9857    4.1833 H       1  UNL1        0.0000
     24 C           2.5751    9.2957    6.9402 C.3     1  UNL1        0.0000
     25 H           3.1567    8.7060    7.6399 H       1  UNL1        0.0000
     26 H           1.9186    9.9333    7.5188 H       1  UNL1        0.0000
     27 H           3.2670    9.9388    6.4038 H       1  UNL1        0.0000
     28 C           0.8071    9.2850    4.4125 C.3     1  UNL1        0.0000
     29 H           1.4703   10.0998    4.1398 H       1  UNL1        0.0000
     30 H          -0.1167    9.7206    4.7685 H       1  UNL1        0.0000
     31 H           0.5846    8.7322    3.5067 H       1  UNL1        0.0000
     32 C          -1.0465    9.8083    7.4259 C.3     1  UNL1        0.0000
     33 H          -1.7146    9.8405    6.5719 H       1  UNL1        0.0000
     34 H          -0.1654   10.3833    7.1715 H       1  UNL1        0.0000
     35 H          -1.5471   10.3204    8.2428 H       1  UNL1        0.0000
     36 C           0.2948    8.0364    9.5808 C.3     1  UNL1        0.0000
     37 H          -0.1918    8.6768   10.3097 H       1  UNL1        0.0000
     38 H           1.3129    8.3858    9.4607 H       1  UNL1        0.0000
     39 H           0.3390    7.0316    9.9934 H       1  UNL1        0.0000
     40 C          -2.3824    7.3096    8.3433 C.3     1  UNL1        0.0000
     41 H          -2.8272    7.8878    9.1486 H       1  UNL1        0.0000
     42 H          -2.3454    6.2800    8.6695 H       1  UNL1        0.0000
     43 H          -3.0588    7.3618    7.4980 H       1  UNL1        0.0000
@<TRIPOS>BOND
     1    10     8    1
     2    11     8    1
     3    31    28    1
     4     8     9    1
     5     8     4    1
     6    14    12    1
     7    13    12    1
     8    21    20    1
     9    29    28    1
    10    23    20    1
    11    28    30    1
    12    28     5    1
    13    12    15    1
    14    12     4    1
    15    20    22    1
    16    20     5    1
    17     4    16    1
    18     4     7    1
    19    17    16    1
    20     5     7    1
    21     5    24    1
    22    16    18    1
    23    16    19    1
    24     3     1    1
    25    27    24    1
    26    33    32    1
    27     7     1    1
    28     7     6    1
    29    24    26    1
    30    24    25    1
    31    34    32    1
    32    32     6    1
    33    32    35    1
    34     1     2    1
    35    43    40    1
    36     6    40    1
    37     6    36    1
    38    40    42    1
    39    40    41    1
    40    38    36    1
    41    36    39    1
    42    36    37    1
