@<TRIPOS>MOLECULE
1
 43 42 0 0 0
SMALL
GASTEIGER

@<TRIPOS>ATOM
      1 SI          3.2720   10.8089   10.9069 Si      1  UNL1        0.0000
      2 H           1.9043   10.2519   10.6412 H       1  UNL1        0.0000
      3 H           3.5740   10.0697   12.1803 H       1  UNL1        0.0000
      4 SI          1.2069   12.4128   12.5407 Si      1  UNL1        0.0000
      5 SI          2.5300   13.7871    9.9910 Si      1  UNL1        0.0000
      6 SI          4.2787   13.2790   12.5906 Si      1  UNL1        0.0000
      7 C           2.8312   12.6137   11.5021 C.3     1  UNL1        0.0000
      8 C          -0.3376   12.1132   11.4484 C.3     1  UNL1        0.0000
      9 H          -0.2306   11.2058   10.8648 H       1  UNL1        0.0000
     10 H          -0.5292   12.9250   10.7579 H       1  UNL1        0.0000
     11 H          -1.2224   11.9958   12.0672 H       1  UNL1        0.0000
     12 C           0.8168   13.9226   13.6429 C.3     1  UNL1        0.0000
     13 H          -0.1570   13.8066   14.1081 H       1  UNL1        0.0000
     14 H           0.7993   14.8473   13.0813 H       1  UNL1        0.0000
     15 H           1.5452   14.0304   14.4380 H       1  UNL1        0.0000
     16 C           1.2034   10.9130   13.7266 C.3     1  UNL1        0.0000
     17 H           2.0789   10.8868   14.3617 H       1  UNL1        0.0000
     18 H           1.1736    9.9808   13.1750 H       1  UNL1        0.0000
     19 H           0.3315   10.9406   14.3740 H       1  UNL1        0.0000
     20 C           1.8210   12.7854    8.5250 C.3     1  UNL1        0.0000
     21 H           2.5595   12.0636    8.1780 H       1  UNL1        0.0000
     22 H           1.5682   13.4298    7.6881 H       1  UNL1        0.0000
     23 H           0.9283   12.2387    8.8034 H       1  UNL1        0.0000
     24 C           4.0807   14.6888    9.3240 C.3     1  UNL1        0.0000
     25 H           5.0048   14.2119    9.6207 H       1  UNL1        0.0000
     26 H           4.1174   15.7142    9.6773 H       1  UNL1        0.0000
     27 H           4.0688   14.7253    8.2390 H       1  UNL1        0.0000
     28 C           1.3243   15.2331   10.3336 C.3     1  UNL1        0.0000
     29 H           0.3379   14.9067   10.6379 H       1  UNL1        0.0000
     30 H           1.2068   15.8400    9.4401 H       1  UNL1        0.0000
     31 H           1.7116   15.8805   11.1123 H       1  UNL1        0.0000
     32 C           4.3853   12.4412   14.3041 C.3     1  UNL1        0.0000
     33 H           4.4494   11.3630   14.2085 H       1  UNL1        0.0000
     34 H           3.5300   12.6724   14.9281 H       1  UNL1        0.0000
     35 H           5.2736   12.7740   14.8334 H       1  UNL1        0.0000
     36 C           4.1496   15.1561   12.9225 C.3     1  UNL1        0.0000
     37 H           4.9325   15.4743   13.6046 H       1  UNL1        0.0000
     38 H           3.2006   15.4261   13.3687 H       1  UNL1        0.0000
     39 H           4.2599   15.7292   12.0099 H       1  UNL1        0.0000
     40 C           5.9866   12.9685   11.7834 C.3     1  UNL1        0.0000
     41 H           5.8934   12.5420   10.7863 H       1  UNL1        0.0000
     42 H           6.5732   12.2723   12.3736 H       1  UNL1        0.0000
     43 H           6.5618   13.8850   11.7010 H       1  UNL1        0.0000
@<TRIPOS>BOND
     1    22    20    1
     2    21    20    1
     3    27    24    1
     4    20    23    1
     5    20     5    1
     6    24    25    1
     7    24    26    1
     8    24     5    1
     9    30    28    1
    10     5    28    1
    11     5     7    1
    12    28    29    1
    13    28    31    1
    14     2     1    1
    15    10     8    1
    16    41    40    1
    17     9     8    1
    18     1     7    1
    19     1     3    1
    20     8    11    1
    21     8     4    1
    22     7     4    1
    23     7     6    1
    24    43    40    1
    25    40    42    1
    26    40     6    1
    27    39    36    1
    28     4    12    1
    29     4    16    1
    30     6    36    1
    31     6    32    1
    32    36    38    1
    33    36    37    1
    34    14    12    1
    35    18    16    1
    36    12    13    1
    37    12    15    1
    38    16    17    1
    39    16    19    1
    40    33    32    1
    41    32    35    1
    42    32    34    1
