@<TRIPOS>MOLECULE
1
 42 42 0 0 0
SMALL
GASTEIGER

@<TRIPOS>ATOM
      1 SI          6.0665    3.7428   -1.0054 Si      1  UNL1        0.0000
      2 N           8.7685    4.8240   -0.2512 N.pl3   1  UNL1        0.0000
      3 C           8.0104    3.7422   -0.5053 C.3     1  UNL1        0.0000
      4 C          10.0298    4.4250    0.1256 C.2     1  UNL1        0.0000
      5 C           8.2753    6.1938   -0.2725 C.3     1  UNL1        0.0000
      6 C           8.8151    6.9717   -1.4711 C.3     1  UNL1        0.0000
      7 C           8.5391    6.9158    1.0480 C.3     1  UNL1        0.0000
      8 C          11.1665    5.3160    0.4799 C.3     1  UNL1        0.0000
      9 C           5.9720    5.1684   -2.3291 C.3     1  UNL1        0.0000
     10 H           7.1966    6.0986   -0.3794 H       1  UNL1        0.0000
     11 H           8.6764    6.4028   -2.3860 H       1  UNL1        0.0000
     12 H           8.2698    7.9067   -1.5617 H       1  UNL1        0.0000
     13 H           9.8708    7.2067   -1.3664 H       1  UNL1        0.0000
     14 H           9.5477    7.3106    1.1133 H       1  UNL1        0.0000
     15 H           7.8454    7.7473    1.1341 H       1  UNL1        0.0000
     16 H           8.3589    6.2481    1.8866 H       1  UNL1        0.0000
     17 H          12.1041    4.7907    0.3137 H       1  UNL1        0.0000
     18 H          11.1751    6.2175   -0.1229 H       1  UNL1        0.0000
     19 H          11.1257    5.5978    1.5316 H       1  UNL1        0.0000
     20 H           5.1059    4.9769   -2.9548 H       1  UNL1        0.0000
     21 H           5.8267    6.1570   -1.9073 H       1  UNL1        0.0000
     22 H           6.8377    5.1999   -2.9845 H       1  UNL1        0.0000
     23 N           8.7686    2.6604   -0.2518 N.pl3   1  UNL1        0.0000
     24 C          10.0299    3.0594    0.1252 C.2     1  UNL1        0.0000
     25 C           8.2757    1.2905   -0.2740 C.3     1  UNL1        0.0000
     26 C           8.8151    0.5139   -1.4736 C.3     1  UNL1        0.0000
     27 C           8.5404    0.5673    1.0456 C.3     1  UNL1        0.0000
     28 C          11.1668    2.1684    0.4789 C.3     1  UNL1        0.0000
     29 C           5.9702    2.3161   -2.3277 C.3     1  UNL1        0.0000
     30 H           7.1969    1.3857   -0.3802 H       1  UNL1        0.0000
     31 H           8.6760    1.0837   -2.3878 H       1  UNL1        0.0000
     32 H           8.2700   -0.4211   -1.5649 H       1  UNL1        0.0000
     33 H           9.8710    0.2791   -1.3695 H       1  UNL1        0.0000
     34 H           9.5491    0.1725    1.1099 H       1  UNL1        0.0000
     35 H           7.8469   -0.2645    1.1312 H       1  UNL1        0.0000
     36 H           8.3606    1.2340    1.8851 H       1  UNL1        0.0000
     37 H          12.1042    2.6940    0.3130 H       1  UNL1        0.0000
     38 H          11.1756    1.2674   -0.1247 H       1  UNL1        0.0000
     39 H          11.1260    1.8858    1.5303 H       1  UNL1        0.0000
     40 H           5.1038    2.5078   -2.9530 H       1  UNL1        0.0000
     41 H           5.8243    1.3280   -1.9051 H       1  UNL1        0.0000
     42 H           6.8354    2.2834   -2.9837 H       1  UNL1        0.0000
@<TRIPOS>BOND
     1    22     9    1
     2    42    29    1
     3    20     9    1
     4    40    29    1
     5    31    26    1
     6    11     6    1
     7     9    21    1
     8     9     1    1
     9    29    41    1
    10    29     1    1
    11    32    26    1
    12    12     6    1
    13    26    33    1
    14    26    25    1
    15     6    13    1
    16     6     5    1
    17     1     3    1
    18     3    23    1
    19     3     2    1
    20    30    25    1
    21    10     5    1
    22    25    23    1
    23    25    27    1
    24     5     2    1
    25     5     7    1
    26    23    24    1
    27     2     4    1
    28    38    28    1
    29    18     8    1
    30    24     4    2
    31    24    28    1
    32     4     8    1
    33    37    28    1
    34    17     8    1
    35    28    39    1
    36     8    19    1
    37    27    34    1
    38    27    35    1
    39    27    36    1
    40     7    14    1
    41     7    15    1
    42     7    16    1
