@<TRIPOS>MOLECULE
1
 14 14 0 0 0
SMALL
GASTEIGER

@<TRIPOS>ATOM
      1 SI          2.7934   16.5553   10.1798 Si      1  UNL1        0.0000
      2 H           3.0568   15.9337   11.5184 H       1  UNL1        0.0000
      3 H           4.0841   16.1016    9.5566 H       1  UNL1        0.0000
      4 C           1.6916   15.1236    9.5494 C.ar    1  UNL1        0.0000
      5 C           2.2383   13.8479    9.4944 C.ar    1  UNL1        0.0000
      6 H           3.2687   13.7126    9.7904 H       1  UNL1        0.0000
      7 C           1.5002   12.7576    9.0720 C.ar    1  UNL1        0.0000
      8 H           1.9538   11.7762    9.0379 H       1  UNL1        0.0000
      9 C           0.1782   12.9216    8.6937 C.ar    1  UNL1        0.0000
     10 H          -0.4052   12.0734    8.3636 H       1  UNL1        0.0000
     11 C          -0.3877   14.1831    8.7420 C.ar    1  UNL1        0.0000
     12 H          -1.4198   14.3247    8.4486 H       1  UNL1        0.0000
     13 C           0.3671   15.2632    9.1649 C.ar    1  UNL1        0.0000
     14 H          -0.0883   16.2445    9.1878 H       1  UNL1        0.0000
@<TRIPOS>BOND
     1    10     9    1
     2    12    11    1
     3     9    11   ar
     4     9     7   ar
     5    11    13   ar
     6     8     7    1
     7     7     5   ar
     8    13    14    1
     9    13     4   ar
    10     5     4   ar
    11     5     6    1
    12     4     1    1
    13     3     1    1
    14     1     2    1
