@<TRIPOS>MOLECULE
1
 14 14 0 0 0
SMALL
GASTEIGER

@<TRIPOS>ATOM
      1 SI          7.3972    3.4304    1.2520 Si      1  UNL1        0.0000
      2 H           7.8117    4.7297    0.6201 H       1  UNL1        0.0000
      3 H           7.8020    2.5768    0.0852 H       1  UNL1        0.0000
      4 C           8.9695    3.1922    2.2983 C.ar    1  UNL1        0.0000
      5 C           9.1264    3.8033    3.5350 C.ar    1  UNL1        0.0000
      6 H           8.3114    4.3869    3.9387 H       1  UNL1        0.0000
      7 C          10.2873    3.6642    4.2738 C.ar    1  UNL1        0.0000
      8 H          10.3811    4.1545    5.2337 H       1  UNL1        0.0000
      9 C          11.3294    2.8946    3.7853 C.ar    1  UNL1        0.0000
     10 H          12.2385    2.7797    4.3586 H       1  UNL1        0.0000
     11 C          11.1942    2.2738    2.5559 C.ar    1  UNL1        0.0000
     12 H          12.0010    1.6697    2.1638 H       1  UNL1        0.0000
     13 C          10.0285    2.4292    1.8267 C.ar    1  UNL1        0.0000
     14 H           9.9398    1.9468    0.8634 H       1  UNL1        0.0000
@<TRIPOS>BOND
     1     3     1    1
     2     2     1    1
     3    14    13    1
     4     1     4    1
     5    13     4   ar
     6    13    11   ar
     7    12    11    1
     8     4     5   ar
     9    11     9   ar
    10     5     6    1
    11     5     7   ar
    12     9     7   ar
    13     9    10    1
    14     7     8    1
