@<TRIPOS>MOLECULE
1
 4 3 0 0 0
SMALL
GASTEIGER

@<TRIPOS>ATOM
      1 SI          5.1133   -2.4452    2.7695 Si      1  UNL1        0.0000
      2 H           3.8953   -3.2869    2.9149 H       1  UNL1        0.0000
      3 H           5.7745   -3.3469    1.7939 H       1  UNL1        0.0000
      4 H           5.7987   -2.9183    3.9920 H       1  UNL1        0.0000
@<TRIPOS>BOND
     1     3     1    1
     2     1     2    1
     3     1     4    1
