@<TRIPOS>MOLECULE
1
 4 3 0 0 0
SMALL
GASTEIGER

@<TRIPOS>ATOM
      1 SI          4.5347    2.4462    2.7688 Si      1  UNL1        0.0000
      2 H           5.7530    3.2872    2.9155 H       1  UNL1        0.0000
      3 H           3.8749    3.3479    1.7923 H       1  UNL1        0.0000
      4 H           3.8494    2.9181    3.9919 H       1  UNL1        0.0000
@<TRIPOS>BOND
     1     3     1    1
     2     1     2    1
     3     1     4    1
