@<TRIPOS>MOLECULE
1
 4 3 0 0 0
SMALL
GASTEIGER

@<TRIPOS>ATOM
      1 SI          3.0263   21.1848    9.1114 Si      1  UNL1        0.0000
      2 H           2.1956   22.0218    8.2009 H       1  UNL1        0.0000
      3 H           3.3765   22.2755   10.0565 H       1  UNL1        0.0000
      4 H           4.2624   21.2432    8.2794 H       1  UNL1        0.0000
@<TRIPOS>BOND
     1     2     1    1
     2     4     1    1
     3     1     3    1
