@<TRIPOS>MOLECULE
1
 24 25 0 0 0
SMALL
GASTEIGER

@<TRIPOS>ATOM
      1 SI          7.2321    2.5415   17.9306 Si      1  UNL1        0.0000
      2 H           8.4963    3.3162   17.6663 H       1  UNL1        0.0000
      3 C           7.9324    1.3113   19.2133 C.ar    1  UNL1        0.0000
      4 C           7.7114    1.4529   20.5780 C.ar    1  UNL1        0.0000
      5 H           7.1174    2.2856   20.9300 H       1  UNL1        0.0000
      6 C           8.2249    0.5512   21.4934 C.ar    1  UNL1        0.0000
      7 H           8.0368    0.6854   22.5506 H       1  UNL1        0.0000
      8 C           8.9785   -0.5246   21.0568 C.ar    1  UNL1        0.0000
      9 H           9.3790   -1.2343   21.7674 H       1  UNL1        0.0000
     10 C           9.2145   -0.6829   19.7016 C.ar    1  UNL1        0.0000
     11 H           9.8028   -1.5198   19.3506 H       1  UNL1        0.0000
     12 C           8.6989    0.2280   18.7972 C.ar    1  UNL1        0.0000
     13 H           8.8875    0.0971   17.7415 H       1  UNL1        0.0000
     14 C           7.1054    1.5423   16.3224 C.ar    1  UNL1        0.0000
     15 C           6.4831    0.3001   16.3052 C.ar    1  UNL1        0.0000
     16 H           6.1165   -0.1144   17.2352 H       1  UNL1        0.0000
     17 C           6.3324   -0.4165   15.1323 C.ar    1  UNL1        0.0000
     18 H           5.8476   -1.3838   15.1448 H       1  UNL1        0.0000
     19 C           6.8026    0.1040   13.9379 C.ar    1  UNL1        0.0000
     20 H           6.6861   -0.4518   13.0175 H       1  UNL1        0.0000
     21 C           7.4233    1.3411   13.9324 C.ar    1  UNL1        0.0000
     22 H           7.7944    1.7546   13.0037 H       1  UNL1        0.0000
     23 C           7.5699    2.0455   15.1142 C.ar    1  UNL1        0.0000
     24 H           8.0569    3.0116   15.0995 H       1  UNL1        0.0000
@<TRIPOS>BOND
     1    22    21    1
     2    20    19    1
     3    21    19   ar
     4    21    23   ar
     5    19    17   ar
     6    24    23    1
     7    23    14   ar
     8    17    18    1
     9    17    15   ar
    10    15    14   ar
    11    15    16    1
    12    14     1    1
    13     2     1    1
    14    13    12    1
    15     1     3    1
    16    12     3   ar
    17    12    10   ar
    18     3     4   ar
    19    11    10    1
    20    10     8   ar
    21     4     5    1
    22     4     6   ar
    23     8     6   ar
    24     8     9    1
    25     6     7    1
