@<TRIPOS>MOLECULE
1
 14 14 0 0 0
SMALL
GASTEIGER

@<TRIPOS>ATOM
      1 SI          3.0074    1.7804    2.0667 Si      1  UNL1        0.0000
      2 H           2.5216    1.0258    3.2672 H       1  UNL1        0.0000
      3 H           3.0303    0.5957    1.1444 H       1  UNL1        0.0000
      4 C           1.2816    2.4426    1.5756 C.ar    1  UNL1        0.0000
      5 C           0.9297    3.7832    1.5709 C.ar    1  UNL1        0.0000
      6 H           1.6723    4.5240    1.8361 H       1  UNL1        0.0000
      7 C          -0.3424    4.2029    1.2234 C.ar    1  UNL1        0.0000
      8 H          -0.5861    5.2574    1.2298 H       1  UNL1        0.0000
      9 C          -1.3026    3.2734    0.8659 C.ar    1  UNL1        0.0000
     10 H          -2.2976    3.5941    0.5908 H       1  UNL1        0.0000
     11 C          -0.9744    1.9282    0.8629 C.ar    1  UNL1        0.0000
     12 H          -1.7161    1.1921    0.5843 H       1  UNL1        0.0000
     13 C           0.3007    1.5272    1.2166 C.ar    1  UNL1        0.0000
     14 H           0.5491    0.4756    1.2132 H       1  UNL1        0.0000
@<TRIPOS>BOND
     1    12    11    1
     2    10     9    1
     3    11     9   ar
     4    11    13   ar
     5     9     7   ar
     6     3     1    1
     7    14    13    1
     8    13     4   ar
     9     7     8    1
    10     7     5   ar
    11     5     4   ar
    12     5     6    1
    13     4     1    1
    14     1     2    1
