@<TRIPOS>MOLECULE
1
 46 51 0 0 0
SMALL
GASTEIGER

@<TRIPOS>ATOM
      1 SI          2.4460    4.9140   14.4828 Si      1  UNL1        0.0000
      2 SI          0.1078    4.7245   14.7190 Si      1  UNL1        0.0000
      3 C           2.7985    6.2603   15.8141 C.ar    1  UNL1        0.0000
      4 C           3.6714    7.3125   15.5546 C.ar    1  UNL1        0.0000
      5 H           4.0771    7.4289   14.5583 H       1  UNL1        0.0000
      6 C           4.0243    8.2200   16.5379 C.ar    1  UNL1        0.0000
      7 H           4.7053    9.0282   16.3083 H       1  UNL1        0.0000
      8 C           3.5050    8.0940   17.8148 C.ar    1  UNL1        0.0000
      9 H           3.7770    8.8005   18.5862 H       1  UNL1        0.0000
     10 C           2.6326    7.0545   18.0954 C.ar    1  UNL1        0.0000
     11 H           2.2205    6.9489   19.0896 H       1  UNL1        0.0000
     12 C           2.2915    6.1509   17.1061 C.ar    1  UNL1        0.0000
     13 H           1.6217    5.3357   17.3429 H       1  UNL1        0.0000
     14 C           2.5251    6.0488   12.9245 C.ar    1  UNL1        0.0000
     15 C           3.4128    5.7735   11.8943 C.ar    1  UNL1        0.0000
     16 H           4.0440    4.8984   11.9675 H       1  UNL1        0.0000
     17 C           3.5090    6.5911   10.7810 C.ar    1  UNL1        0.0000
     18 H           4.2091    6.3521    9.9919 H       1  UNL1        0.0000
     19 C           2.7098    7.7161   10.6794 C.ar    1  UNL1        0.0000
     20 H           2.7780    8.3571    9.8118 H       1  UNL1        0.0000
     21 C           1.8252    8.0173   11.7024 C.ar    1  UNL1        0.0000
     22 H           1.2016    8.8981   11.6349 H       1  UNL1        0.0000
     23 C           1.7400    7.1926   12.8095 C.ar    1  UNL1        0.0000
     24 H           1.0514    7.4417   13.6066 H       1  UNL1        0.0000
     25 C          -1.0314    4.2365   13.2768 C.ar    1  UNL1        0.0000
     26 C          -0.7522    4.7206   11.9973 C.ar    1  UNL1        0.0000
     27 H           0.0813    5.3941   11.8577 H       1  UNL1        0.0000
     28 C          -1.5279    4.3639   10.9105 C.ar    1  UNL1        0.0000
     29 H          -1.2901    4.7499    9.9295 H       1  UNL1        0.0000
     30 C          -2.6106    3.5149   11.0776 C.ar    1  UNL1        0.0000
     31 H          -3.2185    3.2353   10.2295 H       1  UNL1        0.0000
     32 C          -2.9106    3.0296   12.3401 C.ar    1  UNL1        0.0000
     33 H          -3.7545    2.3684   12.4776 H       1  UNL1        0.0000
     34 C          -2.1297    3.3847   13.4245 C.ar    1  UNL1        0.0000
     35 H          -2.3687    2.9923   14.4030 H       1  UNL1        0.0000
     36 C          -0.9105    4.2732   16.2551 C.ar    1  UNL1        0.0000
     37 C          -0.3845    3.4262   17.2301 C.ar    1  UNL1        0.0000
     38 H           0.5817    2.9710   17.0639 H       1  UNL1        0.0000
     39 C          -1.0850    3.1481   18.3892 C.ar    1  UNL1        0.0000
     40 H          -0.6621    2.4820   19.1287 H       1  UNL1        0.0000
     41 C          -2.3268    3.7220   18.6067 C.ar    1  UNL1        0.0000
     42 H          -2.8741    3.5068   19.5130 H       1  UNL1        0.0000
     43 C          -2.8621    4.5754   17.6549 C.ar    1  UNL1        0.0000
     44 H          -3.8298    5.0279   17.8198 H       1  UNL1        0.0000
     45 C          -2.1603    4.8501   16.4970 C.ar    1  UNL1        0.0000
     46 H          -2.5835    5.5170   15.7588 H       1  UNL1        0.0000
@<TRIPOS>BOND
     1    20    19    1
     2    29    28    1
     3    18    17    1
     4    31    30    1
     5    19    17   ar
     6    19    21   ar
     7    17    15   ar
     8    28    30   ar
     9    28    26   ar
    10    30    32   ar
    11    22    21    1
    12    21    23   ar
    13    27    26    1
    14    15    16    1
    15    15    14   ar
    16    26    25   ar
    17    32    33    1
    18    32    34   ar
    19    23    14   ar
    20    23    24    1
    21    14     1    1
    22    25    34   ar
    23    25     2    1
    24    34    35    1
    25     1     2    1
    26     1     3    1
    27     5     4    1
    28     2    36    1
    29     4     3   ar
    30     4     6   ar
    31    46    45    1
    32     3    12   ar
    33    36    45   ar
    34    36    37   ar
    35     7     6    1
    36    45    43   ar
    37     6     8   ar
    38    38    37    1
    39    12    13    1
    40    12    10   ar
    41    37    39   ar
    42    43    44    1
    43    43    41   ar
    44     8    10   ar
    45     8     9    1
    46    10    11    1
    47    39    41   ar
    48    39    40    1
    49    41    42    1
    50     2    26    0
    51     2    37    0
