@<TRIPOS>MOLECULE
1
 10 9 0 0 0
SMALL
GASTEIGER

@<TRIPOS>ATOM
      1 SI         -3.9259   21.7131    4.0785 Si      1  UNL1        0.0000
      2 CL         -4.2660   22.7821    2.3129 Cl      1  UNL1        0.0000
      3 C          -1.9941   21.5712    4.0979 C.3     1  UNL1        0.0000
      4 H          -1.5384   22.5047    3.7826 H       1  UNL1        0.0000
      5 H          -1.6396   20.7860    3.4368 H       1  UNL1        0.0000
      6 H          -1.6396   21.3453    5.0981 H       1  UNL1        0.0000
      7 C          -4.2885   23.0758    5.4009 C.3     1  UNL1        0.0000
      8 H          -3.5980   23.9042    5.2757 H       1  UNL1        0.0000
      9 H          -4.1682   22.6916    6.4088 H       1  UNL1        0.0000
     10 H          -5.2941   23.4757    5.3077 H       1  UNL1        0.0000
@<TRIPOS>BOND
     1     2     1    1
     2     5     3    1
     3     4     3    1
     4     1     3    1
     5     1     7    1
     6     3     6    1
     7     8     7    1
     8    10     7    1
     9     7     9    1
