@<TRIPOS>MOLECULE
1
 38 37 0 0 0
SMALL
GASTEIGER

@<TRIPOS>ATOM
      1 SI         -5.9326    3.9408   15.8060 Si      1  UNL1        0.0000
      2 C          -7.6480    3.0669   16.0903 C.3     1  UNL1        0.0000
      3 C          -6.0265    5.2821   17.2097 C.3     1  UNL1        0.0000
      4 O          -6.8778    5.3496   14.4537 O.3     1  UNL1        0.0000
      5 P          -6.8069    5.9906   13.1133 P.3     1  UNL1        0.0000
      6 N          -6.6289    4.8443   11.9250 N.3     1  UNL1        0.0000
      7 C          -6.2497    5.1655   10.5680 C.3     1  UNL1        0.0000
      8 C          -6.9671    3.4556   12.1427 C.3     1  UNL1        0.0000
      9 N          -8.1817    6.8900   12.7229 N.3     1  UNL1        0.0000
     10 C          -9.3438    6.1810   12.2276 C.3     1  UNL1        0.0000
     11 C          -8.5245    7.9239   13.6810 C.3     1  UNL1        0.0000
     12 N          -5.6446    7.1778   13.0734 N.3     1  UNL1        0.0000
     13 C          -4.4066    7.0031   13.8009 C.3     1  UNL1        0.0000
     14 C          -5.5690    8.1786   12.0325 C.3     1  UNL1        0.0000
     15 H          -7.6861    2.6275   17.0846 H       1  UNL1        0.0000
     16 H          -8.4720    3.7713   16.0072 H       1  UNL1        0.0000
     17 H          -7.8259    2.2617   15.3808 H       1  UNL1        0.0000
     18 H          -5.2199    6.0078   17.1373 H       1  UNL1        0.0000
     19 H          -6.9650    5.8300   17.1776 H       1  UNL1        0.0000
     20 H          -5.9465    4.8126   18.1876 H       1  UNL1        0.0000
     21 H          -6.1763    6.2412   10.4499 H       1  UNL1        0.0000
     22 H          -5.2853    4.7104   10.3260 H       1  UNL1        0.0000
     23 H          -6.9967    4.7874    9.8624 H       1  UNL1        0.0000
     24 H          -7.2797    3.3241   13.1739 H       1  UNL1        0.0000
     25 H          -7.7823    3.1480   11.4785 H       1  UNL1        0.0000
     26 H          -6.1034    2.8147   11.9468 H       1  UNL1        0.0000
     27 H          -9.9777    6.8833   11.6812 H       1  UNL1        0.0000
     28 H          -9.9355    5.7348   13.0348 H       1  UNL1        0.0000
     29 H          -9.0271    5.3928   11.5496 H       1  UNL1        0.0000
     30 H          -9.1314    7.5306   14.5028 H       1  UNL1        0.0000
     31 H          -7.6094    8.3397   14.0959 H       1  UNL1        0.0000
     32 H          -9.0858    8.7124   13.1750 H       1  UNL1        0.0000
     33 H          -4.5506    6.2529   14.5744 H       1  UNL1        0.0000
     34 H          -4.1285    7.9510   14.2695 H       1  UNL1        0.0000
     35 H          -3.5880    6.6882   13.1468 H       1  UNL1        0.0000
     36 H          -6.5307    8.2552   11.5308 H       1  UNL1        0.0000
     37 H          -4.7866    7.9460   11.3024 H       1  UNL1        0.0000
     38 H          -5.3317    9.1464   12.4840 H       1  UNL1        0.0000
@<TRIPOS>BOND
     1    23     7    1
     2    22     7    1
     3    21     7    1
     4     7     6    1
     5    37    14    1
     6    25     8    1
     7    36    14    1
     8    29    10    1
     9    27    10    1
    10     6     8    1
    11     6     5    1
    12    26     8    1
    13    14    38    1
    14    14    12    1
    15     8    24    1
    16    10     9    1
    17    10    28    1
    18     9     5    1
    19     9    11    1
    20    12     5    1
    21    12    13    1
    22     5     4    1
    23    35    13    1
    24    32    11    1
    25    11    31    1
    26    11    30    1
    27    13    34    1
    28    13    33    1
    29     4     1    1
    30    17     2    1
    31     1     2    1
    32     1     3    1
    33    16     2    1
    34     2    15    1
    35    18     3    1
    36    19     3    1
    37     3    20    1
