@<TRIPOS>MOLECULE
1
 32 31 0 0 0
SMALL
GASTEIGER

@<TRIPOS>ATOM
      1 SI         -5.3978    4.5976   15.5410 Si      1  UNL1        0.0000
      2 CL         -7.4383    4.3032   15.8735 Cl      1  UNL1        0.0000
      3 CL         -5.2985    6.6369   15.9904 Cl      1  UNL1        0.0000
      4 O          -5.6237    4.8605   13.7124 O.3     1  UNL1        0.0000
      5 P          -6.1784    5.8590   12.7108 P.3     1  UNL1        0.0000
      6 N          -6.0608    5.0850   11.2527 N.3     1  UNL1        0.0000
      7 C          -6.4550    5.7783   10.0464 C.3     1  UNL1        0.0000
      8 C          -5.7840    3.6738   11.0881 C.3     1  UNL1        0.0000
      9 N          -7.7519    6.3651   12.9073 N.3     1  UNL1        0.0000
     10 C          -8.7936    5.3852   12.6464 C.3     1  UNL1        0.0000
     11 C          -8.0871    7.2553   14.0089 C.3     1  UNL1        0.0000
     12 N          -5.2884    7.2507   12.7601 N.3     1  UNL1        0.0000
     13 C          -3.8506    7.1354   12.9175 C.3     1  UNL1        0.0000
     14 C          -5.7104    8.5029   12.1702 C.3     1  UNL1        0.0000
     15 H          -7.3133    5.2892    9.5747 H       1  UNL1        0.0000
     16 H          -5.6301    5.7872    9.3284 H       1  UNL1        0.0000
     17 H          -6.7293    6.8021   10.2888 H       1  UNL1        0.0000
     18 H          -4.9284    3.5373   10.4229 H       1  UNL1        0.0000
     19 H          -5.5470    3.2377   12.0547 H       1  UNL1        0.0000
     20 H          -6.6462    3.1510   10.6626 H       1  UNL1        0.0000
     21 H          -9.6877    5.9070   12.2992 H       1  UNL1        0.0000
     22 H          -9.0453    4.8136   13.5445 H       1  UNL1        0.0000
     23 H          -8.4642    4.6933   11.8746 H       1  UNL1        0.0000
     24 H          -8.4421    6.6937   14.8764 H       1  UNL1        0.0000
     25 H          -7.2126    7.8268   14.3065 H       1  UNL1        0.0000
     26 H          -8.8770    7.9367   13.6845 H       1  UNL1        0.0000
     27 H          -3.5987    6.1371   13.2673 H       1  UNL1        0.0000
     28 H          -3.5061    7.8628   13.6553 H       1  UNL1        0.0000
     29 H          -3.3323    7.3169   11.9712 H       1  UNL1        0.0000
     30 H          -6.7843    8.4943   12.0066 H       1  UNL1        0.0000
     31 H          -5.2024    8.6833   11.2169 H       1  UNL1        0.0000
     32 H          -5.4608    9.3219   12.8494 H       1  UNL1        0.0000
@<TRIPOS>BOND
     1    16     7    1
     2    15     7    1
     3     7    17    1
     4     7     6    1
     5    18     8    1
     6    20     8    1
     7     8     6    1
     8     8    19    1
     9    31    14    1
    10     6     5    1
    11    23    10    1
    12    29    13    1
    13    30    14    1
    14    14    12    1
    15    14    32    1
    16    21    10    1
    17    10     9    1
    18    10    22    1
    19     5    12    1
    20     5     9    1
    21     5     4    1
    22    12    13    1
    23     9    11    1
    24    13    27    1
    25    13    28    1
    26    26    11    1
    27     4     1    1
    28    11    25    1
    29    11    24    1
    30     1     2    1
    31     1     3    1
