@<TRIPOS>MOLECULE
1
 32 31 0 0 0
SMALL
GASTEIGER

@<TRIPOS>ATOM
      1 SI         -5.9101    3.1041   -5.0589 Si      1  UNL1        0.0000
      2 CL         -6.2416    3.3151   -3.0111 Cl      1  UNL1        0.0000
      3 CL         -7.8890    2.9114   -5.6811 Cl      1  UNL1        0.0000
      4 P          -6.0526    0.0862   -4.2751 P.3     1  UNL1        0.0000
      5 O          -5.5854    1.3347   -5.0084 O.3     1  UNL1        0.0000
      6 N          -7.6739   -0.1817   -4.1056 N.3     1  UNL1        0.0000
      7 C          -8.4379    0.5867   -3.1340 C.3     1  UNL1        0.0000
      8 C          -8.4444   -0.5293   -5.2892 C.3     1  UNL1        0.0000
      9 N          -5.4630    0.1174   -2.7264 N.3     1  UNL1        0.0000
     10 C          -5.8871   -0.8295   -1.7170 C.3     1  UNL1        0.0000
     11 C          -4.1606    0.7027   -2.4703 C.3     1  UNL1        0.0000
     12 N          -5.5225   -1.1611   -5.2395 N.3     1  UNL1        0.0000
     13 C          -4.4298   -0.9994   -6.1781 C.3     1  UNL1        0.0000
     14 C          -5.7177   -2.5183   -4.7739 C.3     1  UNL1        0.0000
     15 H          -9.1744   -0.0683   -2.6618 H       1  UNL1        0.0000
     16 H          -7.7761    0.9974   -2.3760 H       1  UNL1        0.0000
     17 H          -8.9631    1.4148   -3.6154 H       1  UNL1        0.0000
     18 H          -9.2270   -1.2365   -5.0058 H       1  UNL1        0.0000
     19 H          -8.9100    0.3537   -5.7341 H       1  UNL1        0.0000
     20 H          -7.7928   -0.9900   -6.0277 H       1  UNL1        0.0000
     21 H          -5.1458   -1.6238   -1.5798 H       1  UNL1        0.0000
     22 H          -6.8358   -1.2761   -2.0007 H       1  UNL1        0.0000
     23 H          -6.0099   -0.3085   -0.7644 H       1  UNL1        0.0000
     24 H          -3.4078   -0.0705   -2.2873 H       1  UNL1        0.0000
     25 H          -4.2188    1.3520   -1.5945 H       1  UNL1        0.0000
     26 H          -3.8487    1.2991   -3.3237 H       1  UNL1        0.0000
     27 H          -4.6535   -1.5604   -7.0880 H       1  UNL1        0.0000
     28 H          -3.4838   -1.3639   -5.7656 H       1  UNL1        0.0000
     29 H          -4.3241    0.0525   -6.4319 H       1  UNL1        0.0000
     30 H          -4.8270   -2.9097   -4.2706 H       1  UNL1        0.0000
     31 H          -6.5591   -2.5466   -4.0849 H       1  UNL1        0.0000
     32 H          -5.9390   -3.1645   -5.6267 H       1  UNL1        0.0000
@<TRIPOS>BOND
     1    27    13    1
     2    29    13    1
     3    13    28    1
     4    13    12    1
     5    20     8    1
     6    19     8    1
     7     3     1    1
     8    32    14    1
     9     8    18    1
    10     8     6    1
    11    12    14    1
    12    12     4    1
    13     1     5    1
    14     1     2    1
    15     5     4    1
    16    14    30    1
    17    14    31    1
    18     4     6    1
    19     4     9    1
    20     6     7    1
    21    17     7    1
    22    26    11    1
    23     7    15    1
    24     7    16    1
    25     9    11    1
    26     9    10    1
    27    11    24    1
    28    11    25    1
    29    22    10    1
    30    10    21    1
    31    10    23    1
