@<TRIPOS>MOLECULE
2
 10 9 0 0 0
SMALL
GASTEIGER

@<TRIPOS>ATOM
      1 CL          5.4809   -1.6672   -1.0157 Cl      1  UNL1        0.0000
      2 SI          5.8414   -1.2809    1.0277 Si      1  UNL1        0.0000
      3 C           5.1796   -2.9470    1.7655 C.3     1  UNL1        0.0000
      4 H           5.5857   -3.7943    1.2203 H       1  UNL1        0.0000
      5 H           4.0967   -3.0081    1.7084 H       1  UNL1        0.0000
      6 H           5.4615   -3.0541    2.8080 H       1  UNL1        0.0000
      7 C           7.7653   -1.5226    1.0199 C.3     1  UNL1        0.0000
      8 H           8.0234   -2.5232    0.6837 H       1  UNL1        0.0000
      9 H           8.1908   -1.3789    2.0077 H       1  UNL1        0.0000
     10 H           8.2447   -0.8160    0.3484 H       1  UNL1        0.0000
@<TRIPOS>BOND
     1     1     2    1
     2    10     7    1
     3     8     7    1
     4     7     2    1
     5     7     9    1
     6     2     3    1
     7     4     3    1
     8     5     3    1
     9     3     6    1
