@<TRIPOS>MOLECULE
1
 16 15 0 0 0
SMALL
GASTEIGER

@<TRIPOS>ATOM
      1 SI         -0.5289   -1.7022   -6.2595 Si      1  UNL1        0.0000
      2 C          -1.3051   -4.2771   -7.4089 C.3     1  UNL1        0.0000
      3 C          -0.7924   -3.6245   -6.1348 C.3     1  UNL1        0.0000
      4 C           0.6096   -1.6143   -7.8503 C.3     1  UNL1        0.0000
      5 C           1.8795   -2.4494   -7.8350 C.3     1  UNL1        0.0000
      6 H          -1.8090   -1.4119   -7.0374 H       1  UNL1        0.0000
      7 H          -2.2354   -3.8119   -7.7245 H       1  UNL1        0.0000
      8 H          -1.4900   -5.3412   -7.2547 H       1  UNL1        0.0000
      9 H          -0.5842   -4.1739   -8.2148 H       1  UNL1        0.0000
     10 H          -1.5018   -3.8337   -5.3341 H       1  UNL1        0.0000
     11 H           0.1428   -4.1081   -5.8529 H       1  UNL1        0.0000
     12 H           0.8702   -0.5891   -8.1066 H       1  UNL1        0.0000
     13 H          -0.0141   -1.9723   -8.6685 H       1  UNL1        0.0000
     14 H           2.6014   -2.0749   -7.1138 H       1  UNL1        0.0000
     15 H           1.6543   -3.4821   -7.5828 H       1  UNL1        0.0000
     16 H           2.3575   -2.4409   -8.8157 H       1  UNL1        0.0000
@<TRIPOS>BOND
     1    16     5    1
     2    13     4    1
     3     9     2    1
     4    12     4    1
     5     4     5    1
     6     4     1    1
     7     5    15    1
     8     5    14    1
     9     7     2    1
    10     2     8    1
    11     2     3    1
    12     6     1    1
    13     1     3    1
    14     3    11    1
    15     3    10    1
