@<TRIPOS>MOLECULE
1
 14 14 0 0 0
SMALL
GASTEIGER

@<TRIPOS>ATOM
      1 SI         -0.5854   15.3167    4.8031 Si      1  UNL1        0.0000
      2 C          -1.3728   15.3785    6.5408 C.ar    1  UNL1        0.0000
      3 C          -2.7489   15.4881    6.6869 C.ar    1  UNL1        0.0000
      4 C          -0.6192   15.2569    7.7000 C.ar    1  UNL1        0.0000
      5 C          -1.2037   15.2780    8.9537 C.ar    1  UNL1        0.0000
      6 C          -2.5754   15.4166    9.0761 C.ar    1  UNL1        0.0000
      7 C          -3.3498   15.5123    7.9331 C.ar    1  UNL1        0.0000
      8 H          -0.0947   13.8907    4.9176 H       1  UNL1        0.0000
      9 H          -1.8573   14.9617    4.0854 H       1  UNL1        0.0000
     10 H          -3.3668   15.5365    5.8009 H       1  UNL1        0.0000
     11 H           0.4497   15.1344    7.6202 H       1  UNL1        0.0000
     12 H          -0.5889   15.1836    9.8388 H       1  UNL1        0.0000
     13 H          -3.0381   15.4377   10.0529 H       1  UNL1        0.0000
     14 H          -4.4251   15.6019    8.0145 H       1  UNL1        0.0000
@<TRIPOS>BOND
     1     9     1    1
     2     1     8    1
     3     1     2    1
     4    10     3    1
     5     2     3   ar
     6     2     4   ar
     7     3     7   ar
     8    11     4    1
     9     4     5   ar
    10     7    14    1
    11     7     6   ar
    12     5     6   ar
    13     5    12    1
    14     6    13    1
