@<TRIPOS>MOLECULE
5
 50 55 0 0 0
SMALL
GASTEIGER

@<TRIPOS>ATOM
      1 N           8.4817   12.9643    1.8156 N.4     1  UNL1        0.0000
      2 O           7.5129   10.7859    3.0966 O.3     1  UNL1        0.0000
      3 O           7.9851   10.8077    0.3864 O.3     1  UNL1        0.0000
      4 O          10.1755   10.9991    2.1654 O.3     1  UNL1        0.0000
      5 SI          8.7103    8.2645    2.2389 Si      1  UNL1        0.0000
      6 SI         10.8587    7.6339    3.0900 Si      1  UNL1        0.0000
      7 SI          8.2961    7.1318    0.1716 Si      1  UNL1        0.0000
      8 SI          8.6365   10.5317    1.8687 Si      1  UNL1        0.0000
      9 C          12.2100    7.2695    1.7736 C.3     1  UNL1        0.0000
     10 H          13.1892    7.1444    2.2277 H       1  UNL1        0.0000
     11 H          12.2821    8.0802    1.0561 H       1  UNL1        0.0000
     12 H          11.9897    6.3600    1.2251 H       1  UNL1        0.0000
     13 C          10.6606    6.0073    4.0847 C.3     1  UNL1        0.0000
     14 H          10.5126    5.1728    3.4071 H       1  UNL1        0.0000
     15 H           9.7946    6.0339    4.7396 H       1  UNL1        0.0000
     16 H          11.5319    5.7812    4.6926 H       1  UNL1        0.0000
     17 C          11.6809    8.9630    4.2137 C.3     1  UNL1        0.0000
     18 H          10.9516    9.4750    4.8310 H       1  UNL1        0.0000
     19 H          12.1637    9.7150    3.5990 H       1  UNL1        0.0000
     20 H          12.4341    8.5404    4.8735 H       1  UNL1        0.0000
     21 C           7.9550    5.2820    0.5256 C.3     1  UNL1        0.0000
     22 H           7.5022    4.7734   -0.3201 H       1  UNL1        0.0000
     23 H           7.2973    5.1570    1.3804 H       1  UNL1        0.0000
     24 H           8.8786    4.7641    0.7607 H       1  UNL1        0.0000
     25 C           9.7903    7.2298   -1.0329 C.3     1  UNL1        0.0000
     26 H          10.6562    6.7123   -0.6386 H       1  UNL1        0.0000
     27 H          10.0739    8.2643   -1.1971 H       1  UNL1        0.0000
     28 H           9.5626    6.7933   -2.0013 H       1  UNL1        0.0000
     29 C           6.8480    7.8317   -0.8841 C.3     1  UNL1        0.0000
     30 H           6.9337    8.9119   -0.9422 H       1  UNL1        0.0000
     31 H           5.8734    7.5991   -0.4701 H       1  UNL1        0.0000
     32 H           6.8689    7.4457   -1.8999 H       1  UNL1        0.0000
     33 C           6.8676   12.0130    3.3255 C.3     1  UNL1        0.0000
     34 H           6.5201   12.0354    4.3624 H       1  UNL1        0.0000
     35 H           5.9985   12.0814    2.6592 H       1  UNL1        0.0000
     36 C           7.8066   13.1946    3.0681 C.3     1  UNL1        0.0000
     37 H           8.5558   13.2251    3.8612 H       1  UNL1        0.0000
     38 H           7.2386   14.1364    3.0846 H       1  UNL1        0.0000
     39 C           7.9976   12.0036   -0.3311 C.3     1  UNL1        0.0000
     40 H           7.2363   11.9428   -1.1140 H       1  UNL1        0.0000
     41 H           8.9802   12.1209   -0.8054 H       1  UNL1        0.0000
     42 C           7.7168   13.1845    0.6116 C.3     1  UNL1        0.0000
     43 H           6.6552   13.1869    0.8639 H       1  UNL1        0.0000
     44 H           7.9619   14.1351    0.1198 H       1  UNL1        0.0000
     45 C          10.6850   12.2600    2.4732 C.3     1  UNL1        0.0000
     46 H          11.7316   12.2944    2.1571 H       1  UNL1        0.0000
     47 H          10.6475   12.3995    3.5614 H       1  UNL1        0.0000
     48 C           9.8705   13.3499    1.7615 C.3     1  UNL1        0.0000
     49 H          10.0594   14.3313    2.2179 H       1  UNL1        0.0000
     50 H          10.1756   13.3855    0.7145 H       1  UNL1        0.0000
@<TRIPOS>BOND
     1    28    25    1
     2    32    29    1
     3    27    25    1
     4    40    39    1
     5    25    26    1
     6    25     7    1
     7    30    29    1
     8    29    31    1
     9    29     7    1
    10    41    39    1
    11    39     3    1
    12    39    42    1
    13    22    21    1
    14    44    42    1
    15     7    21    1
    16     7     5    1
    17     3     8    1
    18    21    24    1
    19    21    23    1
    20    42    43    1
    21    42     1    1
    22    50    48    1
    23    11     9    1
    24    12     9    1
    25    48     1    1
    26    48    49    1
    27    48    45    1
    28     9    10    1
    29     9     6    1
    30     1    36    1
    31     8     4    1
    32     8     5    1
    33     8     2    1
    34    46    45    1
    35     4    45    1
    36     5     6    1
    37    45    47    1
    38    35    33    1
    39    36    38    1
    40    36    33    1
    41    36    37    1
    42     6    13    1
    43     6    17    1
    44     2    33    1
    45    33    34    1
    46    14    13    1
    47    19    17    1
    48    13    16    1
    49    13    15    1
    50    17    18    1
    51    17    20    1
    52     5     2    0
    53     5     4    0
    54     5     3    0
    55     8     1    0
