@<TRIPOS>MOLECULE
1
 24 25 0 0 0
SMALL
GASTEIGER

@<TRIPOS>ATOM
      1 SI         -0.0175    4.7149    7.9109 Si      1  UNL1        0.0000
      2 H          -1.3258    4.0624    8.2277 H       1  UNL1        0.0000
      3 C           1.2221    3.6374    8.8859 C.ar    1  UNL1        0.0000
      4 C           0.8007    2.4560    9.4846 C.ar    1  UNL1        0.0000
      5 H          -0.2397    2.1758    9.4161 H       1  UNL1        0.0000
      6 C           1.6871    1.6392   10.1628 C.ar    1  UNL1        0.0000
      7 H           1.3359    0.7265   10.6229 H       1  UNL1        0.0000
      8 C           3.0234    1.9895   10.2527 C.ar    1  UNL1        0.0000
      9 H           3.7188    1.3546   10.7827 H       1  UNL1        0.0000
     10 C           3.4630    3.1605    9.6601 C.ar    1  UNL1        0.0000
     11 H           4.5045    3.4431    9.7251 H       1  UNL1        0.0000
     12 C           2.5684    3.9726    8.9870 C.ar    1  UNL1        0.0000
     13 H           2.9311    4.8880    8.5351 H       1  UNL1        0.0000
     14 C           0.2504    4.2008    6.0831 C.ar    1  UNL1        0.0000
     15 C           1.5176    3.9032    5.5914 C.ar    1  UNL1        0.0000
     16 H           2.3662    3.9301    6.2597 H       1  UNL1        0.0000
     17 C           1.7095    3.5614    4.2649 C.ar    1  UNL1        0.0000
     18 H           2.7032    3.3340    3.9054 H       1  UNL1        0.0000
     19 C           0.6308    3.5098    3.3988 C.ar    1  UNL1        0.0000
     20 H           0.7782    3.2451    2.3614 H       1  UNL1        0.0000
     21 C          -0.6391    3.7940    3.8720 C.ar    1  UNL1        0.0000
     22 H          -1.4876    3.7497    3.2038 H       1  UNL1        0.0000
     23 C          -0.8231    4.1346    5.1995 C.ar    1  UNL1        0.0000
     24 H          -1.8186    4.3501    5.5603 H       1  UNL1        0.0000
@<TRIPOS>BOND
     1    20    19    1
     2    22    21    1
     3    19    21   ar
     4    19    17   ar
     5    21    23   ar
     6    18    17    1
     7    17    15   ar
     8    23    24    1
     9    23    14   ar
    10    15    14   ar
    11    15    16    1
    12    14     1    1
    13     1     2    1
    14     1     3    1
    15    13    12    1
    16     3    12   ar
    17     3     4   ar
    18    12    10   ar
    19     5     4    1
    20     4     6   ar
    21    10    11    1
    22    10     8   ar
    23     6     8   ar
    24     6     7    1
    25     8     9    1
