@<TRIPOS>MOLECULE
1
 27 28 0 0 0
SMALL
GASTEIGER

@<TRIPOS>ATOM
      1 SI         15.6301   12.9328    5.5115 Si      1  UNL1        0.0000
      2 C          17.0159   11.9851    6.4466 C.ar    1  UNL1        0.0000
      3 C          18.3423   12.4018    6.4093 C.ar    1  UNL1        0.0000
      4 H          18.6247   13.2134    5.7560 H       1  UNL1        0.0000
      5 C          19.3008   11.8126    7.2154 C.ar    1  UNL1        0.0000
      6 H          20.3235   12.1599    7.1780 H       1  UNL1        0.0000
      7 C          18.9493   10.7874    8.0767 C.ar    1  UNL1        0.0000
      8 H          19.6933   10.3350    8.7164 H       1  UNL1        0.0000
      9 C          17.6376   10.3441    8.1110 C.ar    1  UNL1        0.0000
     10 H          17.3559    9.5372    8.7722 H       1  UNL1        0.0000
     11 C          16.6856   10.9384    7.3029 C.ar    1  UNL1        0.0000
     12 H          15.6654   10.5899    7.3462 H       1  UNL1        0.0000
     13 C          16.3083   14.6885    5.1335 C.ar    1  UNL1        0.0000
     14 C          15.8323   15.8022    5.8168 C.ar    1  UNL1        0.0000
     15 H          15.0770   15.6790    6.5766 H       1  UNL1        0.0000
     16 C          16.3140   17.0718    5.5472 C.ar    1  UNL1        0.0000
     17 H          15.9274   17.9215    6.0921 H       1  UNL1        0.0000
     18 C          17.2823   17.2545    4.5764 C.ar    1  UNL1        0.0000
     19 H          17.6515   18.2451    4.3536 H       1  UNL1        0.0000
     20 C          17.7784   16.1554    3.8970 C.ar    1  UNL1        0.0000
     21 H          18.5375   16.2950    3.1400 H       1  UNL1        0.0000
     22 C          17.3014   14.8889    4.1810 C.ar    1  UNL1        0.0000
     23 H          17.6968   14.0364    3.6526 H       1  UNL1        0.0000
     24 C          14.2732   13.1607    6.8646 C.3     1  UNL1        0.0000
     25 H          14.7101   13.5578    7.7756 H       1  UNL1        0.0000
     26 H          13.8226   12.2064    7.1037 H       1  UNL1        0.0000
     27 H          13.4808   13.8266    6.5414 H       1  UNL1        0.0000
@<TRIPOS>BOND
     1    21    20    1
     2    23    22    1
     3    20    22   ar
     4    20    18   ar
     5    22    13   ar
     6    19    18    1
     7    18    16   ar
     8    13     1    1
     9    13    14   ar
    10     1     2    1
    11     1    24    1
    12    16    14   ar
    13    16    17    1
    14     4     3    1
    15    14    15    1
    16     3     2   ar
    17     3     5   ar
    18     2    11   ar
    19    27    24    1
    20    24    26    1
    21    24    25    1
    22     6     5    1
    23     5     7   ar
    24    11    12    1
    25    11     9   ar
    26     7     9   ar
    27     7     8    1
    28     9    10    1
