@<TRIPOS>MOLECULE
1
 20 20 0 0 0
SMALL
GASTEIGER

@<TRIPOS>ATOM
      1 SI          9.4711   27.5465   -2.5554 Si      1  UNL1        0.0000
      2 C           9.3644   27.4121   -0.6428 C.ar    1  UNL1        0.0000
      3 C           9.4349   28.5562    0.1451 C.ar    1  UNL1        0.0000
      4 H           9.4243   29.5236   -0.3329 H       1  UNL1        0.0000
      5 C           9.5255   28.4782    1.5225 C.ar    1  UNL1        0.0000
      6 H           9.5825   29.3818    2.1131 H       1  UNL1        0.0000
      7 C           9.5519   27.2405    2.1445 C.ar    1  UNL1        0.0000
      8 H           9.6374   27.1736    3.2194 H       1  UNL1        0.0000
      9 C           9.4584   26.0909    1.3791 C.ar    1  UNL1        0.0000
     10 H           9.4672   25.1222    1.8582 H       1  UNL1        0.0000
     11 C           9.3590   26.1802    0.0015 C.ar    1  UNL1        0.0000
     12 H           9.2904   25.2757   -0.5832 H       1  UNL1        0.0000
     13 C           9.9278   25.7983   -3.2303 C.3     1  UNL1        0.0000
     14 H          10.8112   25.4226   -2.7242 H       1  UNL1        0.0000
     15 H          10.1394   25.8289   -4.2932 H       1  UNL1        0.0000
     16 H           9.1208   25.0933   -3.0750 H       1  UNL1        0.0000
     17 C          11.0314   28.6452   -2.8552 C.3     1  UNL1        0.0000
     18 H          11.8959   28.1991   -2.3727 H       1  UNL1        0.0000
     19 H          10.8991   29.6397   -2.4464 H       1  UNL1        0.0000
     20 H          11.2489   28.7477   -3.9116 H       1  UNL1        0.0000
@<TRIPOS>BOND
     1    15    13    1
     2    20    17    1
     3    13    16    1
     4    13    14    1
     5    13     1    1
     6    17     1    1
     7    17    19    1
     8    17    18    1
     9     1     2    1
    10     2    11   ar
    11     2     3   ar
    12    12    11    1
    13     4     3    1
    14    11     9   ar
    15     3     5   ar
    16     9    10    1
    17     9     7   ar
    18     5     6    1
    19     5     7   ar
    20     7     8    1
