@<TRIPOS>MOLECULE
3
 4 3 0 0 0
SMALL
GASTEIGER

@<TRIPOS>ATOM
      1 CL          1.4032   -2.5312    3.5081 Cl      1  UNL1        0.0000
      2 CL          1.8617   -2.8368    0.2828 Cl      1  UNL1        0.0000
      3 SI          1.2754   -1.4844    1.7286 Si      1  UNL1        0.0000
      4 H          -0.1945   -1.5092    1.5242 H       1  UNL1        0.0000
@<TRIPOS>BOND
     1     2     3    1
     2     4     3    1
     3     3     1    1
