@<TRIPOS>MOLECULE
2
 11 10 0 0 0
SMALL
GASTEIGER

@<TRIPOS>ATOM
      1 O           1.2402   11.9036   11.1903 O.3     1  UNL1        0.0000
      2 SI          2.0311   13.1496   11.9448 Si      1  UNL1        0.0000
      3 C           3.1411   14.0003   10.6280 C.3     1  UNL1        0.0000
      4 H           3.8046   13.2847   10.1526 H       1  UNL1        0.0000
      5 H           3.7539   14.7716   11.0784 H       1  UNL1        0.0000
      6 H           2.5490   14.4712    9.8506 H       1  UNL1        0.0000
      7 C           3.2151   12.2700   13.1691 C.3     1  UNL1        0.0000
      8 H           3.6177   12.9794   13.8829 H       1  UNL1        0.0000
      9 H           4.0470   11.8220   12.6367 H       1  UNL1        0.0000
     10 H           2.7159   11.4827   13.7175 H       1  UNL1        0.0000
     11 H           0.8755   12.0510   10.3221 H       1  UNL1        0.0000
@<TRIPOS>BOND
     1     6     3    1
     2     4     3    1
     3    11     1    1
     4     3     5    1
     5     3     2    1
     6     1     2    1
     7     2     7    1
     8     9     7    1
     9     7    10    1
    10     7     8    1
