@<TRIPOS>MOLECULE
1
 15 14 0 0 0
SMALL
GASTEIGER

@<TRIPOS>ATOM
      1 SI         -2.7688    0.8281   11.3573 Si      1  UNL1        0.0000
      2 C          -4.3807    0.1007   12.1226 C.3     1  UNL1        0.0000
      3 H          -4.6341    0.6943   12.9996 H       1  UNL1        0.0000
      4 H          -5.2166    0.2199   11.4314 H       1  UNL1        0.0000
      5 C          -4.2804   -1.3641   12.5311 C.3     1  UNL1        0.0000
      6 H          -5.1803   -1.6853   13.0555 H       1  UNL1        0.0000
      7 H          -3.4306   -1.5196   13.1922 H       1  UNL1        0.0000
      8 H          -4.1552   -2.0065   11.6633 H       1  UNL1        0.0000
      9 C          -2.4978   -0.4248    9.8827 C.3     1  UNL1        0.0000
     10 H          -1.5699   -0.2077    9.3507 H       1  UNL1        0.0000
     11 H          -2.3913   -1.4369   10.2787 H       1  UNL1        0.0000
     12 C          -3.6382   -0.4087    8.8661 C.3     1  UNL1        0.0000
     13 H          -3.4400   -1.1030    8.0497 H       1  UNL1        0.0000
     14 H          -3.7576    0.5867    8.4404 H       1  UNL1        0.0000
     15 H          -4.5790   -0.6928    9.3292 H       1  UNL1        0.0000
@<TRIPOS>BOND
     1    13    12    1
     2    14    12    1
     3    12    15    1
     4    12     9    1
     5    10     9    1
     6     9    11    1
     7     9     1    1
     8     1     2    1
     9     4     2    1
    10     8     5    1
    11     2     5    1
    12     2     3    1
    13     5     6    1
    14     5     7    1
