@<TRIPOS>MOLECULE
1
 50 50 0 0 0
SMALL
GASTEIGER

@<TRIPOS>ATOM
      1 SI          1.2156    3.0810    2.6050 Si      1  UNL1        0.0000
      2 SI          0.0040    1.5679    4.0074 Si      1  UNL1        0.0000
      3 SI         -1.9474    2.5217    4.9775 Si      1  UNL1        0.0000
      4 SI         -3.2853    3.7213    3.4217 Si      1  UNL1        0.0000
      5 SI         -2.1324    5.1394    1.9012 Si      1  UNL1        0.0000
      6 SI         -0.1831    4.1372    0.9770 Si      1  UNL1        0.0000
      7 C           1.5064    4.5447    3.8290 C.3     1  UNL1        0.0000
      8 H           0.5685    4.9262    4.2168 H       1  UNL1        0.0000
      9 H           2.0209    5.3694    3.3489 H       1  UNL1        0.0000
     10 H           2.1109    4.2414    4.6762 H       1  UNL1        0.0000
     11 C          -0.6193    0.0586    3.0024 C.3     1  UNL1        0.0000
     12 H          -1.2305   -0.5956    3.6155 H       1  UNL1        0.0000
     13 H           0.1908   -0.5426    2.6054 H       1  UNL1        0.0000
     14 H          -1.2327    0.3793    2.1665 H       1  UNL1        0.0000
     15 C           1.2154    0.8397    5.3070 C.3     1  UNL1        0.0000
     16 H           0.7563    0.0659    5.9164 H       1  UNL1        0.0000
     17 H           1.5603    1.6217    5.9760 H       1  UNL1        0.0000
     18 H           2.0962    0.4096    4.8361 H       1  UNL1        0.0000
     19 C          -1.4442    3.7070    6.3947 C.3     1  UNL1        0.0000
     20 H          -2.3107    4.1134    6.9066 H       1  UNL1        0.0000
     21 H          -0.8719    4.5447    6.0114 H       1  UNL1        0.0000
     22 H          -0.8304    3.2096    7.1389 H       1  UNL1        0.0000
     23 C          -2.9978    1.1540    5.8359 C.3     1  UNL1        0.0000
     24 H          -3.8745    1.5655    6.3294 H       1  UNL1        0.0000
     25 H          -2.4260    0.6142    6.5864 H       1  UNL1        0.0000
     26 H          -3.3457    0.4285    5.1070 H       1  UNL1        0.0000
     27 C          -4.2102    2.4151    2.3663 C.3     1  UNL1        0.0000
     28 H          -4.8049    1.7453    2.9791 H       1  UNL1        0.0000
     29 H          -3.5042    1.8060    1.8111 H       1  UNL1        0.0000
     30 H          -4.8791    2.8747    1.6458 H       1  UNL1        0.0000
     31 C          -4.6642    4.7015    4.3376 C.3     1  UNL1        0.0000
     32 H          -5.2637    4.0580    4.9763 H       1  UNL1        0.0000
     33 H          -5.3418    5.1930    3.6443 H       1  UNL1        0.0000
     34 H          -4.2283    5.4709    4.9676 H       1  UNL1        0.0000
     35 C          -3.3179    5.7077    0.4934 C.3     1  UNL1        0.0000
     36 H          -4.1983    6.2121    0.8830 H       1  UNL1        0.0000
     37 H          -3.6608    4.8538   -0.0828 H       1  UNL1        0.0000
     38 H          -2.8300    6.3919   -0.1961 H       1  UNL1        0.0000
     39 C          -1.6539    6.7537    2.8129 C.3     1  UNL1        0.0000
     40 H          -2.5272    7.2804    3.1844 H       1  UNL1        0.0000
     41 H          -1.1123    7.4373    2.1669 H       1  UNL1        0.0000
     42 H          -1.0172    6.5411    3.6647 H       1  UNL1        0.0000
     43 C           0.8879    5.3623   -0.0422 C.3     1  UNL1        0.0000
     44 H           1.7717    4.8772   -0.4498 H       1  UNL1        0.0000
     45 H           1.2323    6.1739    0.5908 H       1  UNL1        0.0000
     46 H           0.3414    5.8027   -0.8718 H       1  UNL1        0.0000
     47 C          -0.8322    2.8590   -0.2964 C.3     1  UNL1        0.0000
     48 H          -0.0377    2.4148   -0.8852 H       1  UNL1        0.0000
     49 H          -1.5268    3.3172   -0.9929 H       1  UNL1        0.0000
     50 H          -1.3628    2.0542    0.2022 H       1  UNL1        0.0000
@<TRIPOS>BOND
     1    49    47    1
     2    48    47    1
     3    46    43    1
     4    44    43    1
     5    47    50    1
     6    47     6    1
     7    38    35    1
     8    37    35    1
     9    43    45    1
    10    43     6    1
    11    35    36    1
    12    35     5    1
    13     6     5    1
    14     6     1    1
    15    30    27    1
    16    29    27    1
    17     5    39    1
    18     5     4    1
    19    14    11    1
    20    41    39    1
    21    27    28    1
    22    27     4    1
    23     1     7    1
    24     1     2    1
    25    13    11    1
    26    39    40    1
    27    39    42    1
    28    11    12    1
    29    11     2    1
    30     9     7    1
    31     4    31    1
    32     4     3    1
    33    33    31    1
    34     7     8    1
    35     7    10    1
    36     2     3    1
    37     2    15    1
    38    31    34    1
    39    31    32    1
    40    18    15    1
    41     3    23    1
    42     3    19    1
    43    26    23    1
    44    15    16    1
    45    15    17    1
    46    23    24    1
    47    23    25    1
    48    21    19    1
    49    19    20    1
    50    19    22    1
