@<TRIPOS>MOLECULE
3
 60 61 0 0 0
SMALL
GASTEIGER

@<TRIPOS>ATOM
      1 N          11.5171    5.4466    8.6292 N.pl3   1  UNL1        0.0000
      2 N          14.2299    3.0975   10.7874 N.pl3   1  UNL1        0.0000
      3 SI         10.1511    6.6389    8.1517 Si      1  UNL1        0.0000
      4 SI          8.5113    6.7233    5.5293 Si      1  UNL1        0.0000
      5 SI         11.0189    8.6346    5.9232 Si      1  UNL1        0.0000
      6 SI         11.4721    5.4904    5.3659 Si      1  UNL1        0.0000
      7 C          10.3361    6.8207    6.2234 C.3     1  UNL1        0.0000
      8 C           7.2460    7.7083    6.5607 C.3     1  UNL1        0.0000
      9 H           6.2734    7.2258    6.5205 H       1  UNL1        0.0000
     10 H           7.1116    8.7124    6.1767 H       1  UNL1        0.0000
     11 H           7.5409    7.7947    7.6028 H       1  UNL1        0.0000
     12 C           8.3151    7.3519    3.7345 C.3     1  UNL1        0.0000
     13 H           8.8831    6.7723    3.0182 H       1  UNL1        0.0000
     14 H           8.6219    8.3870    3.6389 H       1  UNL1        0.0000
     15 H           7.2709    7.2963    3.4402 H       1  UNL1        0.0000
     16 C           7.9116    4.9078    5.5435 C.3     1  UNL1        0.0000
     17 H           6.8726    4.8504    5.2337 H       1  UNL1        0.0000
     18 H           7.9747    4.4779    6.5371 H       1  UNL1        0.0000
     19 H           8.4837    4.2791    4.8715 H       1  UNL1        0.0000
     20 C           9.6903    9.9777    6.1324 C.3     1  UNL1        0.0000
     21 H           9.1853    9.8823    7.0850 H       1  UNL1        0.0000
     22 H           8.9422    9.9585    5.3489 H       1  UNL1        0.0000
     23 H          10.1541   10.9592    6.1124 H       1  UNL1        0.0000
     24 C          11.7385    8.8699    4.1646 C.3     1  UNL1        0.0000
     25 H          10.9907    8.7029    3.3980 H       1  UNL1        0.0000
     26 H          12.5746    8.2124    3.9581 H       1  UNL1        0.0000
     27 H          12.0924    9.8903    4.0505 H       1  UNL1        0.0000
     28 C          12.3905    9.0818    7.1705 C.3     1  UNL1        0.0000
     29 H          12.7181   10.1044    7.0099 H       1  UNL1        0.0000
     30 H          13.2692    8.4518    7.0849 H       1  UNL1        0.0000
     31 H          12.0171    9.0218    8.1891 H       1  UNL1        0.0000
     32 C          11.1700    3.6946    5.9709 C.3     1  UNL1        0.0000
     33 H          11.2187    3.0013    5.1367 H       1  UNL1        0.0000
     34 H          10.2016    3.5674    6.4372 H       1  UNL1        0.0000
     35 H          11.9224    3.3861    6.6892 H       1  UNL1        0.0000
     36 C          11.2234    5.3867    3.4717 C.3     1  UNL1        0.0000
     37 H          11.9954    4.7621    3.0302 H       1  UNL1        0.0000
     38 H          11.2773    6.3543    2.9900 H       1  UNL1        0.0000
     39 H          10.2677    4.9409    3.2189 H       1  UNL1        0.0000
     40 C          13.3446    5.7890    5.6231 C.3     1  UNL1        0.0000
     41 H          13.6507    5.5733    6.6410 H       1  UNL1        0.0000
     42 H          13.6374    6.8076    5.3994 H       1  UNL1        0.0000
     43 H          13.9174    5.1363    4.9703 H       1  UNL1        0.0000
     44 C          11.1905    4.2193    9.0819 C.3     1  UNL1        0.0000
     45 H          10.1836    3.9027    8.8644 H       1  UNL1        0.0000
     46 C          12.0382    3.4178    9.7838 C.2     1  UNL1        0.0000
     47 H          11.6848    2.4556   10.1123 H       1  UNL1        0.0000
     48 C          13.3490    3.8595   10.0881 C.2     1  UNL1        0.0000
     49 C          13.6769    5.1430    9.6119 C.2     1  UNL1        0.0000
     50 H          14.6438    5.5764    9.7966 H       1  UNL1        0.0000
     51 C          12.7600    5.8842    8.9182 C.2     1  UNL1        0.0000
     52 H          12.9961    6.8741    8.5719 H       1  UNL1        0.0000
     53 C          13.8589    1.7813   11.2449 C.3     1  UNL1        0.0000
     54 H          13.0819    1.8213   12.0162 H       1  UNL1        0.0000
     55 H          14.7316    1.2850   11.6624 H       1  UNL1        0.0000
     56 H          13.4950    1.1760   10.4120 H       1  UNL1        0.0000
     57 C          15.4682    3.6746   11.2540 C.3     1  UNL1        0.0000
     58 H          16.1433    3.8807   10.4183 H       1  UNL1        0.0000
     59 H          15.9625    2.9791   11.9274 H       1  UNL1        0.0000
     60 H          15.2868    4.6066   11.7957 H       1  UNL1        0.0000
@<TRIPOS>BOND
     1    38    36    1
     2    13    12    1
     3    37    36    1
     4    39    36    1
     5    25    24    1
     6    15    12    1
     7    36     6    1
     8    14    12    1
     9    12     4    1
    10    26    24    1
    11    27    24    1
    12    24     5    1
    13    19    16    1
    14    43    40    1
    15    33    32    1
    16    17    16    1
    17    22    20    1
    18     6    40    1
    19     6    32    1
    20     6     7    1
    21    42    40    1
    22     4    16    1
    23     4     7    1
    24     4     8    1
    25    16    18    1
    26    40    41    1
    27     5    20    1
    28     5     7    1
    29     5    28    1
    30    32    34    1
    31    32    35    1
    32    23    20    1
    33    20    21    1
    34    10     8    1
    35     7     3    1
    36     9     8    1
    37     8    11    1
    38    29    28    1
    39    30    28    1
    40    28    31    1
    41     3     1    1
    42    52    51    1
    43     1    51    1
    44     1    44    1
    45    45    44    1
    46    51    49    2
    47    44    46    1
    48    49    50    1
    49    49    48    1
    50    46    48    2
    51    46    47    1
    52    48     2    1
    53    56    53    1
    54    58    57    1
    55     2    53    1
    56     2    57    1
    57    53    55    1
    58    53    54    1
    59    57    60    1
    60    57    59    1
    61     3    44    0
