@<TRIPOS>MOLECULE
2
 58 61 0 0 0
SMALL
GASTEIGER

@<TRIPOS>ATOM
      1 CL          7.0431    9.7497    5.1959 Cl      1  UNL1        0.0000
      2 SI          7.7731    9.2099    3.3662 Si      1  UNL1        0.0000
      3 N           7.5393    7.4549    3.2206 N.ar    1  UNL1        0.0000
      4 C           8.5108    6.6185    2.7158 C.ar    1  UNL1        0.0000
      5 H           9.4725    7.0088    2.4535 H       1  UNL1        0.0000
      6 C           8.0502    5.3421    2.6674 C.ar    1  UNL1        0.0000
      7 H           8.5841    4.4789    2.3207 H       1  UNL1        0.0000
      8 C           6.7307    5.3693    3.1716 C.ar    1  UNL1        0.0000
      9 H           6.0704    4.5317    3.2863 H       1  UNL1        0.0000
     10 C           6.4418    6.6626    3.5078 C.ar    1  UNL1        0.0000
     11 C           5.1998    7.1242    4.1479 C.ar    1  UNL1        0.0000
     12 C           5.1312    7.1858    5.5432 C.ar    1  UNL1        0.0000
     13 C           3.9377    7.5490    6.1484 C.ar    1  UNL1        0.0000
     14 H           3.8939    7.6070    7.2270 H       1  UNL1        0.0000
     15 C           2.7995    7.8232    5.4046 C.ar    1  UNL1        0.0000
     16 C           2.8730    7.7167    4.0247 C.ar    1  UNL1        0.0000
     17 H           1.9917    7.9086    3.4285 H       1  UNL1        0.0000
     18 C           4.0553    7.3711    3.3852 C.ar    1  UNL1        0.0000
     19 C           6.3007    6.8233    6.4101 C.3     1  UNL1        0.0000
     20 H           6.4703    7.5933    7.1597 H       1  UNL1        0.0000
     21 H           7.2084    6.6960    5.8283 H       1  UNL1        0.0000
     22 H           6.0918    5.8875    6.9295 H       1  UNL1        0.0000
     23 C           1.5189    8.1986    6.0875 C.3     1  UNL1        0.0000
     24 H           1.7014    8.9465    6.8569 H       1  UNL1        0.0000
     25 H           1.0797    7.3251    6.5697 H       1  UNL1        0.0000
     26 H           0.7993    8.5942    5.3750 H       1  UNL1        0.0000
     27 C           4.0786    7.2760    1.8897 C.3     1  UNL1        0.0000
     28 H           3.1051    6.9700    1.5129 H       1  UNL1        0.0000
     29 H           4.8282    6.5627    1.5564 H       1  UNL1        0.0000
     30 H           4.3195    8.2468    1.4564 H       1  UNL1        0.0000
     31 N           6.6904    9.9142    2.1586 N.ar    1  UNL1        0.0000
     32 C           6.5292    9.3602    0.9084 C.ar    1  UNL1        0.0000
     33 H           6.9011    8.3763    0.7051 H       1  UNL1        0.0000
     34 C           5.8482   10.2210    0.1081 C.ar    1  UNL1        0.0000
     35 H           5.5631   10.0613   -0.9138 H       1  UNL1        0.0000
     36 C           5.5740   11.3704    0.8881 C.ar    1  UNL1        0.0000
     37 H           5.0391   12.2446    0.5695 H       1  UNL1        0.0000
     38 C           6.1001   11.1624    2.1321 C.ar    1  UNL1        0.0000
     39 C           6.0322   12.0651    3.2926 C.ar    1  UNL1        0.0000
     40 C           6.9822   13.0751    3.4590 C.ar    1  UNL1        0.0000
     41 C           6.8947   13.9201    4.5522 C.ar    1  UNL1        0.0000
     42 H           7.6390   14.6929    4.6850 H       1  UNL1        0.0000
     43 C           5.8710   13.7965    5.4812 C.ar    1  UNL1        0.0000
     44 C           4.9135   12.8162    5.2803 C.ar    1  UNL1        0.0000
     45 H           4.0988   12.7157    5.9837 H       1  UNL1        0.0000
     46 C           4.9739   11.9536    4.1960 C.ar    1  UNL1        0.0000
     47 C           8.0902   13.2400    2.4640 C.3     1  UNL1        0.0000
     48 H           8.7901   12.4083    2.5540 H       1  UNL1        0.0000
     49 H           8.6281   14.1689    2.6380 H       1  UNL1        0.0000
     50 H           7.6964   13.2434    1.4494 H       1  UNL1        0.0000
     51 C           5.8029   14.7239    6.6566 C.3     1  UNL1        0.0000
     52 H           6.7540   14.7363    7.1862 H       1  UNL1        0.0000
     53 H           5.0215   14.4189    7.3479 H       1  UNL1        0.0000
     54 H           5.5928   15.7406    6.3242 H       1  UNL1        0.0000
     55 C           3.9279   10.8999    4.0155 C.3     1  UNL1        0.0000
     56 H           4.3039    9.9433    4.3732 H       1  UNL1        0.0000
     57 H           3.6681   10.7847    2.9655 H       1  UNL1        0.0000
     58 H           3.0313   11.1436    4.5797 H       1  UNL1        0.0000
@<TRIPOS>BOND
     1    35    34    1
     2    34    36   ar
     3    34    32   ar
     4    37    36    1
     5    33    32    1
     6    36    38   ar
     7    32    31   ar
     8    50    47    1
     9    30    27    1
    10    28    27    1
    11    29    27    1
    12    27    18    1
    13    38    31   ar
    14    38    39    1
    15    31     2    1
    16     7     6    1
    17     5     4    1
    18    47    48    1
    19    47    49    1
    20    47    40    1
    21     6     4   ar
    22     6     8   ar
    23     4     3   ar
    24    57    55    1
    25     8     9    1
    26     8    10   ar
    27     3     2    1
    28     3    10   ar
    29    39    40   ar
    30    39    46   ar
    31     2     1    1
    32    18    16   ar
    33    18    11   ar
    34    17    16    1
    35    40    41   ar
    36    10    11    1
    37    55    46    1
    38    55    56    1
    39    55    58    1
    40    16    15   ar
    41    11    12   ar
    42    46    44   ar
    43    41    42    1
    44    41    43   ar
    45    44    43   ar
    46    44    45    1
    47    26    23    1
    48    15    23    1
    49    15    13   ar
    50    43    51    1
    51    12    13   ar
    52    12    19    1
    53    21    19    1
    54    23    25    1
    55    23    24    1
    56    13    14    1
    57    54    51    1
    58    19    22    1
    59    19    20    1
    60    51    52    1
    61    51    53    1
