@<TRIPOS>MOLECULE
1
 40 41 0 0 0
SMALL
GASTEIGER

@<TRIPOS>ATOM
      1 SI          7.4088    3.3649   11.7667 Si      1  UNL1        0.0000
      2 SI          9.4109    3.3579   13.1642 Si      1  UNL1        0.0000
      3 SI          5.9368    1.6695   12.6653 Si      1  UNL1        0.0000
      4 SI          6.3616    5.5077   12.2548 Si      1  UNL1        0.0000
      5 C          10.8915    4.3764   12.4815 C.3     1  UNL1        0.0000
      6 H          11.0500    5.2685   13.0794 H       1  UNL1        0.0000
      7 H          10.7125    4.7103   11.4647 H       1  UNL1        0.0000
      8 H          11.8244    3.8185   12.4859 H       1  UNL1        0.0000
      9 C          10.0924    1.5836   13.5055 C.3     1  UNL1        0.0000
     10 H          10.6630    1.5667   14.4294 H       1  UNL1        0.0000
     11 H          10.7525    1.2192   12.7233 H       1  UNL1        0.0000
     12 H           9.2842    0.8678   13.6184 H       1  UNL1        0.0000
     13 C           9.0813    4.0626   14.9121 C.3     1  UNL1        0.0000
     14 H           8.2702    3.5371   15.4041 H       1  UNL1        0.0000
     15 H           8.8157    5.1137   14.8676 H       1  UNL1        0.0000
     16 H           9.9590    3.9766   15.5478 H       1  UNL1        0.0000
     17 C           6.3688   -0.1455   12.2175 C.3     1  UNL1        0.0000
     18 H           7.3792   -0.4118   12.5137 H       1  UNL1        0.0000
     19 H           6.2794   -0.3107   11.1497 H       1  UNL1        0.0000
     20 H           5.6944   -0.8410   12.7103 H       1  UNL1        0.0000
     21 C           5.8972    1.7088   14.5779 C.3     1  UNL1        0.0000
     22 H           5.1469    1.0323   14.9765 H       1  UNL1        0.0000
     23 H           5.6703    2.7019   14.9473 H       1  UNL1        0.0000
     24 H           6.8548    1.4146   14.9945 H       1  UNL1        0.0000
     25 C           4.1640    1.9938   12.0305 C.3     1  UNL1        0.0000
     26 H           4.1634    2.0847   10.9484 H       1  UNL1        0.0000
     27 H           3.7612    2.9163   12.4370 H       1  UNL1        0.0000
     28 H           3.4775    1.1924   12.2891 H       1  UNL1        0.0000
     29 C           7.6802    6.8741   12.0143 C.3     1  UNL1        0.0000
     30 H           7.2611    7.8697   12.1310 H       1  UNL1        0.0000
     31 H           8.1109    6.8174   11.0192 H       1  UNL1        0.0000
     32 H           8.4942    6.7731   12.7253 H       1  UNL1        0.0000
     33 C           4.8208    5.9880   11.2266 C.3     1  UNL1        0.0000
     34 H           4.2941    6.8307   11.6693 H       1  UNL1        0.0000
     35 H           4.1181    5.1626   11.1586 H       1  UNL1        0.0000
     36 H           5.0892    6.2636   10.2130 H       1  UNL1        0.0000
     37 C           5.7398    5.5991   14.0679 C.3     1  UNL1        0.0000
     38 H           5.4561    6.6141   14.3308 H       1  UNL1        0.0000
     39 H           6.4922    5.2780   14.7774 H       1  UNL1        0.0000
     40 H           4.8656    4.9719   14.2099 H       1  UNL1        0.0000
@<TRIPOS>BOND
     1    36    33    1
     2    26    25    1
     3    31    29    1
     4    19    17    1
     5    35    33    1
     6    33    34    1
     7    33     4    1
     8     7     5    1
     9     1     4    1
    10     1     3    1
    11     1     2    1
    12    29    30    1
    13    29     4    1
    14    29    32    1
    15    25    28    1
    16    25    27    1
    17    25     3    1
    18    17    18    1
    19    17     3    1
    20    17    20    1
    21     4    37    1
    22     5     8    1
    23     5     6    1
    24     5     2    1
    25     3    21    1
    26    11     9    1
    27     2     9    1
    28     2    13    1
    29     9    12    1
    30     9    10    1
    31    37    40    1
    32    37    38    1
    33    37    39    1
    34    21    23    1
    35    21    22    1
    36    21    24    1
    37    15    13    1
    38    13    14    1
    39    13    16    1
    40     1    29    0
    41     1    25    0
