@<TRIPOS>MOLECULE
2
 38 40 0 0 0
SMALL
GASTEIGER

@<TRIPOS>ATOM
      1 S           9.6200    1.9684   12.7190 S.3     1  UNL1        0.0000
      2 SI          8.8991    1.8264   10.6419 Si      1  UNL1        0.0000
      3 C           9.8128    3.1951    9.6688 C.ar    1  UNL1        0.0000
      4 C          11.1648    3.0502    9.3686 C.ar    1  UNL1        0.0000
      5 H          11.6784    2.1493    9.6727 H       1  UNL1        0.0000
      6 C          11.8535    4.0417    8.6935 C.ar    1  UNL1        0.0000
      7 H          12.9026    3.9129    8.4696 H       1  UNL1        0.0000
      8 C          11.1990    5.1991    8.3062 C.ar    1  UNL1        0.0000
      9 H          11.7352    5.9757    7.7804 H       1  UNL1        0.0000
     10 C           9.8541    5.3573    8.5966 C.ar    1  UNL1        0.0000
     11 H           9.3376    6.2579    8.2976 H       1  UNL1        0.0000
     12 C           9.1702    4.3624    9.2717 C.ar    1  UNL1        0.0000
     13 H           8.1216    4.4911    9.4992 H       1  UNL1        0.0000
     14 C           9.6387    0.1932   10.0077 C.ar    1  UNL1        0.0000
     15 C          10.4467   -0.6248   10.7866 C.ar    1  UNL1        0.0000
     16 H          10.6906   -0.3172   11.7932 H       1  UNL1        0.0000
     17 C          10.9416   -1.8169   10.2873 C.ar    1  UNL1        0.0000
     18 H          11.5702   -2.4415   10.9056 H       1  UNL1        0.0000
     19 C          10.6313   -2.2085    8.9962 C.ar    1  UNL1        0.0000
     20 H          11.0156   -3.1390    8.6041 H       1  UNL1        0.0000
     21 C           9.8257   -1.4024    8.2074 C.ar    1  UNL1        0.0000
     22 H           9.5812   -1.7041    7.1989 H       1  UNL1        0.0000
     23 C           9.3339   -0.2142    8.7138 C.ar    1  UNL1        0.0000
     24 H           8.7011    0.4142    8.1034 H       1  UNL1        0.0000
     25 C           8.8313    3.5055   13.1276 C.ar    1  UNL1        0.0000
     26 C           9.2961    4.6971   12.5957 C.ar    1  UNL1        0.0000
     27 H          10.1528    4.6942   11.9396 H       1  UNL1        0.0000
     28 C           8.6533    5.8798   12.9061 C.ar    1  UNL1        0.0000
     29 H           9.0111    6.8045   12.4766 H       1  UNL1        0.0000
     30 C           7.5553    5.8975   13.7582 C.ar    1  UNL1        0.0000
     31 C           7.1232    4.6976   14.3087 C.ar    1  UNL1        0.0000
     32 H           6.2786    4.6928   14.9831 H       1  UNL1        0.0000
     33 C           7.7528    3.5075   13.9969 C.ar    1  UNL1        0.0000
     34 H           7.4194    2.5769   14.4297 H       1  UNL1        0.0000
     35 C           6.8739    7.1880   14.0966 C.3     1  UNL1        0.0000
     36 H           6.8934    7.8679   13.2480 H       1  UNL1        0.0000
     37 H           7.3860    7.6729   14.9285 H       1  UNL1        0.0000
     38 H           5.8407    7.0166   14.3888 H       1  UNL1        0.0000
@<TRIPOS>BOND
     1    22    21    1
     2     9     8    1
     3    24    23    1
     4    21    23   ar
     5    21    19   ar
     6    11    10    1
     7     8    10   ar
     8     8     6   ar
     9     7     6    1
    10    10    12   ar
    11    20    19    1
    12     6     4   ar
    13    23    14   ar
    14    19    17   ar
    15    12    13    1
    16    12     3   ar
    17     4     3   ar
    18     4     5    1
    19     3     2    1
    20    14     2    1
    21    14    15   ar
    22    17    15   ar
    23    17    18    1
    24     2     1    1
    25    15    16    1
    26    27    26    1
    27    29    28    1
    28    26    28   ar
    29    26    25   ar
    30     1    25    1
    31    28    30   ar
    32    25    33   ar
    33    36    35    1
    34    30    35    1
    35    30    31   ar
    36    33    31   ar
    37    33    34    1
    38    35    38    1
    39    35    37    1
    40    31    32    1
