@<TRIPOS>MOLECULE
1
 28 29 0 0 0
SMALL
GASTEIGER

@<TRIPOS>ATOM
      1 SI         11.9832    1.0703   -0.0080 Si      1  UNL1        0.0000
      2 O          12.6268   -0.2028   -0.8367 O.3     1  UNL1        0.0000
      3 C          11.9220   -1.0303   -1.7108 C.3     1  UNL1        0.0000
      4 H          11.0874   -1.5110   -1.1928 H       1  UNL1        0.0000
      5 H          12.6060   -1.7917   -2.0849 H       1  UNL1        0.0000
      6 H          11.5230   -0.4564   -2.5505 H       1  UNL1        0.0000
      7 C          11.3233    2.3248   -1.2953 C.ar    1  UNL1        0.0000
      8 C           9.9992    2.7429   -1.3505 C.ar    1  UNL1        0.0000
      9 H           9.2975    2.3731   -0.6167 H       1  UNL1        0.0000
     10 C           9.5672    3.6219   -2.3285 C.ar    1  UNL1        0.0000
     11 H           8.5331    3.9343   -2.3531 H       1  UNL1        0.0000
     12 C          10.4577    4.0990   -3.2751 C.ar    1  UNL1        0.0000
     13 H          10.1219    4.7838   -4.0404 H       1  UNL1        0.0000
     14 C          11.7813    3.6937   -3.2355 C.ar    1  UNL1        0.0000
     15 H          12.4820    4.0627   -3.9708 H       1  UNL1        0.0000
     16 C          12.2056    2.8173   -2.2532 C.ar    1  UNL1        0.0000
     17 H          13.2393    2.5042   -2.2225 H       1  UNL1        0.0000
     18 C          13.5227    1.8252    0.8011 C.ar    1  UNL1        0.0000
     19 C          14.8104    1.3960    0.5076 C.ar    1  UNL1        0.0000
     20 H          14.9437    0.6146   -0.2248 H       1  UNL1        0.0000
     21 C          15.9085    1.9522    1.1401 C.ar    1  UNL1        0.0000
     22 H          16.9043    1.6057    0.9012 H       1  UNL1        0.0000
     23 C          15.7324    2.9531    2.0803 C.ar    1  UNL1        0.0000
     24 H          16.5877    3.3879    2.5774 H       1  UNL1        0.0000
     25 C          14.4540    3.3944    2.3815 C.ar    1  UNL1        0.0000
     26 H          14.3114    4.1762    3.1142 H       1  UNL1        0.0000
     27 C          13.3629    2.8308    1.7465 C.ar    1  UNL1        0.0000
     28 H          12.3644    3.1687    1.9837 H       1  UNL1        0.0000
@<TRIPOS>BOND
     1    13    12    1
     2    15    14    1
     3    12    14   ar
     4    12    10   ar
     5    14    16   ar
     6     6     3    1
     7    11    10    1
     8    10     8   ar
     9    16    17    1
    10    16     7   ar
    11     5     3    1
    12     3     4    1
    13     3     2    1
    14     8     7   ar
    15     8     9    1
    16     7     1    1
    17     2     1    1
    18    20    19    1
    19     1    18    1
    20    19    18   ar
    21    19    21   ar
    22    18    27   ar
    23    22    21    1
    24    21    23   ar
    25    27    28    1
    26    27    25   ar
    27    23    25   ar
    28    23    24    1
    29    25    26    1
