@<TRIPOS>MOLECULE
1
 28 29 0 0 0
SMALL
GASTEIGER

@<TRIPOS>ATOM
      1 SI          0.4735   10.5186    7.9143 Si      1  UNL1        0.0000
      2 CL          0.9966    8.8542    9.0413 Cl      1  UNL1        0.0000
      3 O           0.9455   12.5558    5.9411 O.3     1  UNL1        0.0000
      4 C           0.8298   13.5838    4.9869 C.3     1  UNL1        0.0000
      5 H          -0.2115   13.5770    4.6712 H       1  UNL1        0.0000
      6 H           1.4725   13.4049    4.1184 H       1  UNL1        0.0000
      7 H           1.0699   14.5603    5.4184 H       1  UNL1        0.0000
      8 C           2.1242   11.4078    7.5868 C.ar    1  UNL1        0.0000
      9 C           3.2968   11.1433    8.2738 C.ar    1  UNL1        0.0000
     10 H           3.2907   10.3912    9.0475 H       1  UNL1        0.0000
     11 C           4.4662   11.8276    7.9828 C.ar    1  UNL1        0.0000
     12 H           5.3710   11.6123    8.5306 H       1  UNL1        0.0000
     13 C           4.4660   12.7882    6.9897 C.ar    1  UNL1        0.0000
     14 H           5.3708   13.3292    6.7550 H       1  UNL1        0.0000
     15 C           3.3067   13.0679    6.2817 C.ar    1  UNL1        0.0000
     16 H           3.3289   13.8198    5.5079 H       1  UNL1        0.0000
     17 C           2.1420   12.3769    6.5795 C.ar    1  UNL1        0.0000
     18 C          -0.5470   11.6157    9.0916 C.ar    1  UNL1        0.0000
     19 C          -0.4837   13.0031    9.0144 C.ar    1  UNL1        0.0000
     20 H           0.1935   13.4619    8.3104 H       1  UNL1        0.0000
     21 C          -1.2708   13.7993    9.8256 C.ar    1  UNL1        0.0000
     22 H          -1.2070   14.8757    9.7517 H       1  UNL1        0.0000
     23 C          -2.1412   13.2182   10.7323 C.ar    1  UNL1        0.0000
     24 H          -2.7586   13.8383   11.3659 H       1  UNL1        0.0000
     25 C          -2.2155   11.8386   10.8233 C.ar    1  UNL1        0.0000
     26 H          -2.8915   11.3786   11.5294 H       1  UNL1        0.0000
     27 C          -1.4270   11.0478   10.0077 C.ar    1  UNL1        0.0000
     28 H          -1.4887    9.9727   10.0861 H       1  UNL1        0.0000
@<TRIPOS>BOND
     1     6     4    1
     2     5     4    1
     3     4     7    1
     4     4     3    1
     5    16    15    1
     6     3    17    1
     7    15    17   ar
     8    15    13   ar
     9    17     8   ar
    10    14    13    1
    11    13    11   ar
    12     8     1    1
    13     8     9   ar
    14     1     2    1
    15     1    18    1
    16    11     9   ar
    17    11    12    1
    18     9    10    1
    19    20    19    1
    20    19    18   ar
    21    19    21   ar
    22    18    27   ar
    23    22    21    1
    24    21    23   ar
    25    27    28    1
    26    27    25   ar
    27    23    25   ar
    28    23    24    1
    29    25    26    1
