@<TRIPOS>MOLECULE
1
 14 14 0 0 0
SMALL
GASTEIGER

@<TRIPOS>ATOM
      1 SI          2.2736    2.5830    4.0310 Si      1  UNL1        0.0000
      2 H           2.3514    3.9502    4.6455 H       1  UNL1        0.0000
      3 H           3.4115    1.9137    4.7421 H       1  UNL1        0.0000
      4 C           3.0586    2.9474    2.3316 C.ar    1  UNL1        0.0000
      5 C           3.2320    1.9574    1.3721 C.ar    1  UNL1        0.0000
      6 H           2.9104    0.9487    1.5915 H       1  UNL1        0.0000
      7 C           3.7967    2.2314    0.1396 C.ar    1  UNL1        0.0000
      8 H           3.9192    1.4408   -0.5887 H       1  UNL1        0.0000
      9 C           4.2021    3.5195   -0.1655 C.ar    1  UNL1        0.0000
     10 H           4.6403    3.7401   -1.1288 H       1  UNL1        0.0000
     11 C           4.0417    4.5215    0.7756 C.ar    1  UNL1        0.0000
     12 H           4.3583    5.5307    0.5491 H       1  UNL1        0.0000
     13 C           3.4780    4.2309    2.0051 C.ar    1  UNL1        0.0000
     14 H           3.3624    5.0207    2.7341 H       1  UNL1        0.0000
@<TRIPOS>BOND
     1    10     9    1
     2     8     7    1
     3     9     7   ar
     4     9    11   ar
     5     7     5   ar
     6    12    11    1
     7    11    13   ar
     8     5     6    1
     9     5     4   ar
    10    13     4   ar
    11    13    14    1
    12     4     1    1
    13     1     2    1
    14     1     3    1
