@<TRIPOS>MOLECULE
1
 24 25 0 0 0
SMALL
GASTEIGER

@<TRIPOS>ATOM
      1 SI         -1.2942    2.7593    4.4680 Si      1  UNL1        0.0000
      2 H          -2.2680    1.7143    3.9616 H       1  UNL1        0.0000
      3 C          -0.5455    1.8362    5.9749 C.ar    1  UNL1        0.0000
      4 C           0.5944    2.2963    6.6230 C.ar    1  UNL1        0.0000
      5 H           1.0868    3.1856    6.2526 H       1  UNL1        0.0000
      6 C           1.1162    1.6405    7.7237 C.ar    1  UNL1        0.0000
      7 H           2.0072    2.0176    8.2077 H       1  UNL1        0.0000
      8 C           0.4985    0.4993    8.2063 C.ar    1  UNL1        0.0000
      9 H           0.9042   -0.0191    9.0637 H       1  UNL1        0.0000
     10 C          -0.6447    0.0298    7.5824 C.ar    1  UNL1        0.0000
     11 H          -1.1366   -0.8582    7.9553 H       1  UNL1        0.0000
     12 C          -1.1558    0.6954    6.4828 C.ar    1  UNL1        0.0000
     13 H          -2.0483    0.3186    6.0041 H       1  UNL1        0.0000
     14 C          -2.5025    3.8950    5.4271 C.ar    1  UNL1        0.0000
     15 C          -3.7419    3.4243    5.8444 C.ar    1  UNL1        0.0000
     16 H          -4.0413    2.4204    5.5803 H       1  UNL1        0.0000
     17 C          -4.6000    4.2148    6.5884 C.ar    1  UNL1        0.0000
     18 H          -5.5603    3.8273    6.9006 H       1  UNL1        0.0000
     19 C          -4.2294    5.5035    6.9356 C.ar    1  UNL1        0.0000
     20 H          -4.8978    6.1245    7.5156 H       1  UNL1        0.0000
     21 C          -2.9956    5.9881    6.5343 C.ar    1  UNL1        0.0000
     22 H          -2.6967    6.9935    6.7979 H       1  UNL1        0.0000
     23 C          -2.1470    5.1861    5.7909 C.ar    1  UNL1        0.0000
     24 H          -1.1935    5.5696    5.4661 H       1  UNL1        0.0000
@<TRIPOS>BOND
     1     2     1    1
     2     1    14    1
     3     1     3    1
     4    14    23   ar
     5    14    15   ar
     6    24    23    1
     7    16    15    1
     8    23    21   ar
     9    15    17   ar
    10     3    12   ar
    11     3     4   ar
    12    13    12    1
    13     5     4    1
    14    12    10   ar
    15    21    22    1
    16    21    19   ar
    17    17    18    1
    18    17    19   ar
    19     4     6   ar
    20    19    20    1
    21    10    11    1
    22    10     8   ar
    23     6     8   ar
    24     6     7    1
    25     8     9    1
