@<TRIPOS>MOLECULE
2
 14 14 0 0 0
SMALL
GASTEIGER

@<TRIPOS>ATOM
      1 CL          5.3935    8.3651    4.7424 Cl      1  UNL1        0.0000
      2 SI          5.4306    6.3129    5.2208 Si      1  UNL1        0.0000
      3 H           6.6276    5.9534    4.3811 H       1  UNL1        0.0000
      4 C           6.2477    6.4063    6.9589 C.ar    1  UNL1        0.0000
      5 C           7.1090    7.4472    7.2915 C.ar    1  UNL1        0.0000
      6 H           7.3143    8.2185    6.5646 H       1  UNL1        0.0000
      7 C           7.7043    7.5231    8.5379 C.ar    1  UNL1        0.0000
      8 H           8.3674    8.3452    8.7680 H       1  UNL1        0.0000
      9 C           7.4523    6.5503    9.4893 C.ar    1  UNL1        0.0000
     10 H           7.9135    6.6073   10.4650 H       1  UNL1        0.0000
     11 C           6.6022    5.5028    9.1789 C.ar    1  UNL1        0.0000
     12 H           6.3976    4.7355    9.9134 H       1  UNL1        0.0000
     13 C           6.0121    5.4389    7.9299 C.ar    1  UNL1        0.0000
     14 H           5.3457    4.6169    7.7048 H       1  UNL1        0.0000
@<TRIPOS>BOND
     1     3     2    1
     2     1     2    1
     3     2     4    1
     4     6     5    1
     5     4     5   ar
     6     4    13   ar
     7     5     7   ar
     8    14    13    1
     9    13    11   ar
    10     7     8    1
    11     7     9   ar
    12    11     9   ar
    13    11    12    1
    14     9    10    1
