@<TRIPOS>MOLECULE
2
 32 33 0 0 0
SMALL
GASTEIGER

@<TRIPOS>ATOM
      1 P           3.1588   -4.2421    4.8587 P.3     1  UNL1        0.0000
      2 SI          1.8475   -2.4865    5.5836 Si      1  UNL1        0.0000
      3 C           4.5602   -4.0556    6.0187 C.ar    1  UNL1        0.0000
      4 C           5.8450   -3.9659    5.4970 C.ar    1  UNL1        0.0000
      5 C           6.9404   -3.8573    6.3363 C.ar    1  UNL1        0.0000
      6 C           6.7617   -3.8462    7.7093 C.ar    1  UNL1        0.0000
      7 C           5.4823   -3.9307    8.2383 C.ar    1  UNL1        0.0000
      8 C           4.3873   -4.0266    7.4003 C.ar    1  UNL1        0.0000
      9 C           2.3216   -5.6795    5.5991 C.ar    1  UNL1        0.0000
     10 C           2.9895   -6.6304    6.3660 C.ar    1  UNL1        0.0000
     11 C           2.3247   -7.7503    6.8314 C.ar    1  UNL1        0.0000
     12 C           0.9900   -7.9521    6.5240 C.ar    1  UNL1        0.0000
     13 C           0.3265   -7.0309    5.7287 C.ar    1  UNL1        0.0000
     14 C           0.9884   -5.9114    5.2643 C.ar    1  UNL1        0.0000
     15 C           0.5696   -2.3424    4.1340 C.3     1  UNL1        0.0000
     16 C           0.7693   -2.9463    7.1308 C.3     1  UNL1        0.0000
     17 H           5.9779   -3.9872    4.4246 H       1  UNL1        0.0000
     18 H           7.9361   -3.7891    5.9209 H       1  UNL1        0.0000
     19 H           7.6154   -3.7725    8.3680 H       1  UNL1        0.0000
     20 H           5.3435   -3.9232    9.3108 H       1  UNL1        0.0000
     21 H           3.3913   -4.1108    7.8128 H       1  UNL1        0.0000
     22 H           4.0353   -6.4947    6.6009 H       1  UNL1        0.0000
     23 H           2.8550   -8.4736    7.4346 H       1  UNL1        0.0000
     24 H           0.4732   -8.8264    6.8918 H       1  UNL1        0.0000
     25 H          -0.7104   -7.1898    5.4688 H       1  UNL1        0.0000
     26 H           0.4780   -5.2000    4.6330 H       1  UNL1        0.0000
     27 H           0.1362   -1.3462    4.1108 H       1  UNL1        0.0000
     28 H           1.0407   -2.5269    3.1720 H       1  UNL1        0.0000
     29 H          -0.2492   -3.0483    4.2398 H       1  UNL1        0.0000
     30 H          -0.1444   -2.3594    7.1352 H       1  UNL1        0.0000
     31 H           0.4910   -3.9975    7.1268 H       1  UNL1        0.0000
     32 H           1.2936   -2.7388    8.0605 H       1  UNL1        0.0000
@<TRIPOS>BOND
     1    28    15    1
     2    27    15    1
     3    15    29    1
     4    15     2    1
     5    17     4    1
     6    26    14    1
     7     1     2    1
     8     1     9    1
     9     1     3    1
    10    14     9   ar
    11    14    13   ar
    12    25    13    1
    13     4     3   ar
    14     4     5   ar
    15     2    16    1
    16     9    10   ar
    17    13    12   ar
    18    18     5    1
    19     3     8   ar
    20     5     6   ar
    21    10    22    1
    22    10    11   ar
    23    12    11   ar
    24    12    24    1
    25    11    23    1
    26    31    16    1
    27    16    30    1
    28    16    32    1
    29     8    21    1
    30     8     7   ar
    31     6     7   ar
    32     6    19    1
    33     7    20    1
