@<TRIPOS>MOLECULE
1
 35 35 0 0 0
SMALL
GASTEIGER

@<TRIPOS>ATOM
      1 SI          0.2514    4.8045    4.7413 Si      1  UNL1        0.0000
      2 C          -1.2732    5.7263    4.0087 C.3     1  UNL1        0.0000
      3 H          -2.1293    5.6561    4.6715 H       1  UNL1        0.0000
      4 H          -1.5709    5.3137    3.0503 H       1  UNL1        0.0000
      5 H          -1.0578    6.7802    3.8603 H       1  UNL1        0.0000
      6 C           1.5954    4.9808    3.3727 C.3     1  UNL1        0.0000
      7 H           2.5706    4.6452    3.7065 H       1  UNL1        0.0000
      8 H           1.6905    6.0179    3.0671 H       1  UNL1        0.0000
      9 H           1.3335    4.4017    2.4928 H       1  UNL1        0.0000
     10 SI          0.8412    6.0546    6.6793 Si      1  UNL1        0.0000
     11 C          -0.3090    5.6001    8.1328 C.3     1  UNL1        0.0000
     12 H          -1.3522    5.6823    7.8468 H       1  UNL1        0.0000
     13 H          -0.1520    6.2331    9.0012 H       1  UNL1        0.0000
     14 H          -0.1463    4.5716    8.4396 H       1  UNL1        0.0000
     15 C           2.6476    5.8545    7.2773 C.3     1  UNL1        0.0000
     16 H           3.3512    5.9077    6.4524 H       1  UNL1        0.0000
     17 H           2.7919    4.8987    7.7706 H       1  UNL1        0.0000
     18 H           2.9204    6.6300    7.9875 H       1  UNL1        0.0000
     19 C           0.6039    7.8903    6.2510 C.ar    1  UNL1        0.0000
     20 C           1.6312    8.6294    5.6626 C.ar    1  UNL1        0.0000
     21 H           2.5945    8.1653    5.5153 H       1  UNL1        0.0000
     22 C           1.4563    9.9383    5.2727 C.ar    1  UNL1        0.0000
     23 H           2.2789   10.4764    4.8294 H       1  UNL1        0.0000
     24 C           0.2193   10.5726    5.4502 C.ar    1  UNL1        0.0000
     25 C          -0.8223    9.8299    6.0280 C.ar    1  UNL1        0.0000
     26 H          -1.7864   10.2978    6.1726 H       1  UNL1        0.0000
     27 C          -0.6293    8.5227    6.4124 C.ar    1  UNL1        0.0000
     28 H          -1.4477    7.9763    6.8555 H       1  UNL1        0.0000
     29 C          -0.0465   11.9334    5.0778 C.2     1  UNL1        0.0000
     30 H          -1.0568   12.2763    5.2752 H       1  UNL1        0.0000
     31 C           0.7866   12.8492    4.5159 C.2     1  UNL1        0.0000
     32 C           2.1405   12.6814    4.1549 C.1     1  UNL1        0.0000
     33 N           3.2415   12.6265    3.8348 N.1     1  UNL1        0.0000
     34 C           0.2988   14.1482    4.2334 C.1     1  UNL1        0.0000
     35 N          -0.1045   15.1980    4.0110 N.1     1  UNL1        0.0000
@<TRIPOS>BOND
     1     9     6    1
     2     4     2    1
     3     8     6    1
     4     6     7    1
     5     6     1    1
     6    33    32    3
     7     5     2    1
     8     2     3    1
     9     2     1    1
    10    35    34    3
    11    32    31    1
    12    34    31    1
    13    31    29    2
    14     1    10    1
    15    23    22    1
    16    29    30    1
    17    29    24    1
    18    22    24   ar
    19    22    20   ar
    20    24    25   ar
    21    21    20    1
    22    20    19   ar
    23    25    26    1
    24    25    27   ar
    25    19    27   ar
    26    19    10    1
    27    27    28    1
    28    16    15    1
    29    10    15    1
    30    10    11    1
    31    15    17    1
    32    15    18    1
    33    12    11    1
    34    11    14    1
    35    11    13    1
