@<TRIPOS>MOLECULE
1
 22 21 0 0 0
SMALL
GASTEIGER

@<TRIPOS>ATOM
      1 SI          7.4674    9.7103    3.3246 Si      1  UNL1        0.0000
      2 F           8.8216    8.1929    5.0940 F       1  UNL1        0.0000
      3 F           9.1092   10.3001    5.5605 F       1  UNL1        0.0000
      4 F          10.3054    8.5352    2.7794 F       1  UNL1        0.0000
      5 F          11.3516    8.8336    4.6325 F       1  UNL1        0.0000
      6 F          10.8246   10.5236    3.4181 F       1  UNL1        0.0000
      7 F           9.0158   10.8344    1.3553 F       1  UNL1        0.0000
      8 F           8.6615   12.2517    2.9583 F       1  UNL1        0.0000
      9 F           7.3700   12.4470    0.2704 F       1  UNL1        0.0000
     10 F           6.2444   12.7897    2.0662 F       1  UNL1        0.0000
     11 F           6.0829   10.9060    1.0274 F       1  UNL1        0.0000
     12 F           6.7449   11.8721    5.0259 F       1  UNL1        0.0000
     13 F           5.1557   11.0545    3.7904 F       1  UNL1        0.0000
     14 F           4.8682   10.5069    6.4987 F       1  UNL1        0.0000
     15 F           5.0393    8.8154    5.1740 F       1  UNL1        0.0000
     16 F           6.6810    9.3569    6.4440 F       1  UNL1        0.0000
     17 C           9.0323    9.4260    4.5361 C.3     1  UNL1        0.0000
     18 C          10.4053    9.3439    3.8535 C.3     1  UNL1        0.0000
     19 C           8.0718   11.2744    2.2390 C.3     1  UNL1        0.0000
     20 C           6.9394   11.8872    1.3967 C.3     1  UNL1        0.0000
     21 C           6.2469   10.7158    4.5418 C.3     1  UNL1        0.0000
     22 C           5.7060    9.8669    5.6980 C.3     1  UNL1        0.0000
@<TRIPOS>BOND
     1     9    20    1
     2    11    20    1
     3     7    19    1
     4    20    10    1
     5    20    19    1
     6    19     8    1
     7    19     1    1
     8     4    18    1
     9     1    17    1
    10     1    21    1
    11     6    18    1
    12    13    21    1
    13    18    17    1
    14    18     5    1
    15    17     2    1
    16    17     3    1
    17    21    12    1
    18    21    22    1
    19    15    22    1
    20    22    16    1
    21    22    14    1
