@<TRIPOS>MOLECULE
3
 68 70 0 0 0
SMALL
GASTEIGER

@<TRIPOS>ATOM
      1 CL         13.1195   15.2562    1.9843 Cl      1  UNL1        0.0000
      2 CL         15.2735   13.4985    3.6157 Cl      1  UNL1        0.0000
      3 SI         14.4569   13.6525    1.6418 Si      1  UNL1        0.0000
      4 N          16.3062   16.0666    1.4525 N.pl3   1  UNL1        0.0000
      5 N          17.2161   14.2178    0.8338 N.pl3   1  UNL1        0.0000
      6 C          16.0520   14.7759    1.1912 C.3     1  UNL1        0.0000
      7 C          15.2477   17.5768    3.0456 C.ar    1  UNL1        0.0000
      8 C          15.3961   17.1293    1.7329 C.ar    1  UNL1        0.0000
      9 C          17.0728   17.8645    4.7172 C.3     1  UNL1        0.0000
     10 C          17.4573   12.9036    0.3322 C.ar    1  UNL1        0.0000
     11 C          17.1882   12.6530   -1.0197 C.ar    1  UNL1        0.0000
     12 C          16.5555   13.7102   -1.8978 C.3     1  UNL1        0.0000
     13 C          17.6392   14.6333   -2.4693 C.3     1  UNL1        0.0000
     14 C          15.7299   13.1285   -3.0443 C.3     1  UNL1        0.0000
     15 C          17.5663   11.4221   -1.5347 C.ar    1  UNL1        0.0000
     16 C          18.1607   10.4676   -0.7296 C.ar    1  UNL1        0.0000
     17 C          18.3980   10.7298    0.6039 C.ar    1  UNL1        0.0000
     18 C          18.0635   11.9591    1.1597 C.ar    1  UNL1        0.0000
     19 C          18.3947   12.2564    2.6025 C.3     1  UNL1        0.0000
     20 C          19.9079   12.4390    2.7618 C.3     1  UNL1        0.0000
     21 C          17.8940   11.1520    3.5337 C.3     1  UNL1        0.0000
     22 C          15.9786   16.9282    4.1960 C.3     1  UNL1        0.0000
     23 C          18.2104   15.1540    0.8806 C.2     1  UNL1        0.0000
     24 C          17.6370   16.3175    1.2680 C.2     1  UNL1        0.0000
     25 C          15.5508   18.4105   -1.6122 C.3     1  UNL1        0.0000
     26 C          13.6248   16.7989   -1.3691 C.3     1  UNL1        0.0000
     27 C          14.9444   17.2859   -0.7681 C.3     1  UNL1        0.0000
     28 C          14.7468   17.7424    0.6581 C.ar    1  UNL1        0.0000
     29 C          15.0116   16.5492    5.3186 C.3     1  UNL1        0.0000
     30 C          14.4019   18.6549    3.2709 C.ar    1  UNL1        0.0000
     31 C          13.9024   18.8085    0.9340 C.ar    1  UNL1        0.0000
     32 C          13.7288   19.2596    2.2279 C.ar    1  UNL1        0.0000
     33 H          17.7918   18.0990    3.9342 H       1  UNL1        0.0000
     34 H          17.6036   17.3932    5.5408 H       1  UNL1        0.0000
     35 H          16.6417   18.7969    5.0738 H       1  UNL1        0.0000
     36 H          15.8710   14.3008   -1.2787 H       1  UNL1        0.0000
     37 H          18.1882   15.1454   -1.6821 H       1  UNL1        0.0000
     38 H          17.1866   15.3837   -3.1135 H       1  UNL1        0.0000
     39 H          18.3471   14.0551   -3.0593 H       1  UNL1        0.0000
     40 H          15.0500   12.3637   -2.6801 H       1  UNL1        0.0000
     41 H          16.3660   12.6990   -3.8141 H       1  UNL1        0.0000
     42 H          15.1380   13.9178   -3.5019 H       1  UNL1        0.0000
     43 H          17.3910   11.1990   -2.5738 H       1  UNL1        0.0000
     44 H          18.4389    9.5128   -1.1490 H       1  UNL1        0.0000
     45 H          18.8622    9.9766    1.2198 H       1  UNL1        0.0000
     46 H          17.8984   13.1835    2.9017 H       1  UNL1        0.0000
     47 H          20.2741   13.2523    2.1384 H       1  UNL1        0.0000
     48 H          20.4338   11.5305    2.4782 H       1  UNL1        0.0000
     49 H          20.1471   12.6666    3.7976 H       1  UNL1        0.0000
     50 H          16.8415   10.9536    3.3548 H       1  UNL1        0.0000
     51 H          18.0094   11.4670    4.5677 H       1  UNL1        0.0000
     52 H          18.4513   10.2297    3.3944 H       1  UNL1        0.0000
     53 H          16.4507   16.0049    3.8494 H       1  UNL1        0.0000
     54 H          19.2257   14.9165    0.6385 H       1  UNL1        0.0000
     55 H          18.0531   17.2920    1.4179 H       1  UNL1        0.0000
     56 H          16.4972   18.7415   -1.1881 H       1  UNL1        0.0000
     57 H          14.8815   19.2647   -1.6631 H       1  UNL1        0.0000
     58 H          15.7317   18.0581   -2.6251 H       1  UNL1        0.0000
     59 H          13.1844   16.0294   -0.7401 H       1  UNL1        0.0000
     60 H          13.7954   16.3815   -2.3589 H       1  UNL1        0.0000
     61 H          12.9138   17.6153   -1.4597 H       1  UNL1        0.0000
     62 H          15.6468   16.4477   -0.7883 H       1  UNL1        0.0000
     63 H          14.1822   15.9730    4.9181 H       1  UNL1        0.0000
     64 H          14.6155   17.4294    5.8178 H       1  UNL1        0.0000
     65 H          15.5268   15.9393    6.0566 H       1  UNL1        0.0000
     66 H          14.2641   19.0214    4.2756 H       1  UNL1        0.0000
     67 H          13.3741   19.2912    0.1270 H       1  UNL1        0.0000
     68 H          13.0662   20.0892    2.4238 H       1  UNL1        0.0000
@<TRIPOS>BOND
     1    41    14    1
     2    42    14    1
     3    38    13    1
     4    39    13    1
     5    14    40    1
     6    14    12    1
     7    58    25    1
     8    43    15    1
     9    13    12    1
    10    13    37    1
    11    60    26    1
    12    12    36    1
    13    12    11    1
    14    57    25    1
    15    25    56    1
    16    25    27    1
    17    15    11   ar
    18    15    16   ar
    19    61    26    1
    20    26    27    1
    21    26    59    1
    22    44    16    1
    23    11    10   ar
    24    62    27    1
    25    27    28    1
    26    16    17   ar
    27    67    31    1
    28    10     5    1
    29    10    18   ar
    30    17    18   ar
    31    17    45    1
    32    54    23    1
    33    28    31   ar
    34    28     8   ar
    35     5    23    1
    36     5     6    1
    37    23    24    2
    38    31    32   ar
    39    18    19    1
    40     6     4    1
    41     6     3    1
    42    24    55    1
    43    24     4    1
    44     4     8    1
    45     3     1    1
    46     3     2    1
    47     8     7   ar
    48    47    20    1
    49    32    68    1
    50    32    30   ar
    51    48    20    1
    52    19    20    1
    53    19    46    1
    54    19    21    1
    55    20    49    1
    56     7    30   ar
    57     7    22    1
    58    30    66    1
    59    50    21    1
    60    52    21    1
    61    21    51    1
    62    53    22    1
    63    33     9    1
    64    22     9    1
    65    22    29    1
    66     9    35    1
    67     9    34    1
    68    63    29    1
    69    29    64    1
    70    29    65    1
