@<TRIPOS>MOLECULE
1
 23 23 0 0 0
SMALL
GASTEIGER

@<TRIPOS>ATOM
      1 SI          1.7532    2.6460    3.9338 Si      1  UNL1        0.0000
      2 CL          1.4655    3.5731    5.7891 Cl      1  UNL1        0.0000
      3 C           3.4410    3.3010    3.2816 C.ar    1  UNL1        0.0000
      4 C           3.5588    3.6732    1.9359 C.ar    1  UNL1        0.0000
      5 C           4.7602    4.1625    1.4459 C.ar    1  UNL1        0.0000
      6 C           5.8786    4.2914    2.2554 C.ar    1  UNL1        0.0000
      7 C           5.7672    3.9004    3.5779 C.ar    1  UNL1        0.0000
      8 C           4.5750    3.4087    4.0946 C.ar    1  UNL1        0.0000
      9 C           2.4099    3.5581    0.9792 C.3     1  UNL1        0.0000
     10 C           7.1609    4.8412    1.7062 C.3     1  UNL1        0.0000
     11 C           4.5578    3.0104    5.5397 C.3     1  UNL1        0.0000
     12 H           0.7974    3.5507    3.2220 H       1  UNL1        0.0000
     13 H           4.8309    4.4481    0.4046 H       1  UNL1        0.0000
     14 H           6.6291    3.9783    4.2274 H       1  UNL1        0.0000
     15 H           2.7564    3.6671   -0.0464 H       1  UNL1        0.0000
     16 H           1.9147    2.5961    1.0822 H       1  UNL1        0.0000
     17 H           1.6739    4.3358    1.1757 H       1  UNL1        0.0000
     18 H           7.9902    4.6449    2.3817 H       1  UNL1        0.0000
     19 H           7.3850    4.4024    0.7352 H       1  UNL1        0.0000
     20 H           7.0774    5.9200    1.5726 H       1  UNL1        0.0000
     21 H           5.5649    2.7814    5.8850 H       1  UNL1        0.0000
     22 H           4.1692    3.8279    6.1453 H       1  UNL1        0.0000
     23 H           3.9176    2.1483    5.7056 H       1  UNL1        0.0000
@<TRIPOS>BOND
     1    15     9    1
     2    13     5    1
     3    19    10    1
     4     9    16    1
     5     9    17    1
     6     9     4    1
     7     5     4   ar
     8     5     6   ar
     9    20    10    1
    10    10     6    1
    11    10    18    1
    12     4     3   ar
    13     6     7   ar
    14    12     1    1
    15     3     1    1
    16     3     8   ar
    17     7     8   ar
    18     7    14    1
    19     1     2    1
    20     8    11    1
    21    11    23    1
    22    11    21    1
    23    11    22    1
