@<TRIPOS>MOLECULE
1
 13 12 0 0 0
SMALL
GASTEIGER

@<TRIPOS>ATOM
      1 SI          7.7510   -1.1409    9.3971 Si      1  UNL1        0.0000
      2 C           8.7362   -2.6371    8.6545 C.3     1  UNL1        0.0000
      3 C           5.9547   -1.8507    9.5750 C.3     1  UNL1        0.0000
      4 C           8.2871   -1.1830   11.2645 C.3     1  UNL1        0.0000
      5 H           9.7918   -2.5902    8.9001 H       1  UNL1        0.0000
      6 H           8.6537   -2.6906    7.5734 H       1  UNL1        0.0000
      7 H           8.3481   -3.5660    9.0590 H       1  UNL1        0.0000
      8 H           5.6192   -2.3287    8.6613 H       1  UNL1        0.0000
      9 H           5.2258   -1.0927    9.8434 H       1  UNL1        0.0000
     10 H           5.9423   -2.6040   10.3552 H       1  UNL1        0.0000
     11 H           7.6030   -0.6205   11.8910 H       1  UNL1        0.0000
     12 H           9.2876   -0.8059   11.4371 H       1  UNL1        0.0000
     13 H           8.2653   -2.2122   11.6069 H       1  UNL1        0.0000
@<TRIPOS>BOND
     1     6     2    1
     2     2     5    1
     3     2     7    1
     4     2     1    1
     5     8     3    1
     6     1     3    1
     7     1     4    1
     8     3     9    1
     9     3    10    1
    10     4    12    1
    11     4    13    1
    12     4    11    1
