@<TRIPOS>MOLECULE
1
 10 9 0 0 0
SMALL
GASTEIGER

@<TRIPOS>ATOM
      1 SI          6.8634   -2.0217    6.5583 Si      1  UNL1        0.0000
      2 CL          5.0326   -2.7971    5.9440 Cl      1  UNL1        0.0000
      3 C           7.1871   -2.9263    8.2237 C.3     1  UNL1        0.0000
      4 C           8.1409   -2.8851    5.4086 C.3     1  UNL1        0.0000
      5 H           7.2182   -4.0015    8.0715 H       1  UNL1        0.0000
      6 H           6.4231   -2.7279    8.9693 H       1  UNL1        0.0000
      7 H           8.1430   -2.6245    8.6392 H       1  UNL1        0.0000
      8 H           8.0905   -3.9642    5.5239 H       1  UNL1        0.0000
      9 H           9.1480   -2.5728    5.6645 H       1  UNL1        0.0000
     10 H           7.9850   -2.6646    4.3569 H       1  UNL1        0.0000
@<TRIPOS>BOND
     1    10     4    1
     2     4     8    1
     3     4     9    1
     4     4     1    1
     5     2     1    1
     6     1     3    1
     7     5     3    1
     8     3     7    1
     9     3     6    1
