@<TRIPOS>MOLECULE
1
 10 9 0 0 0
SMALL
GASTEIGER

@<TRIPOS>ATOM
      1 SI          3.5585    5.5923    5.2446 Si      1  UNL1        0.0000
      2 C           2.8529    6.4647    6.7985 C.3     1  UNL1        0.0000
      3 C           3.8638    3.7662    5.7420 C.3     1  UNL1        0.0000
      4 H           4.9402    6.1626    5.2277 H       1  UNL1        0.0000
      5 H           1.8908    6.0716    7.1123 H       1  UNL1        0.0000
      6 H           3.5356    6.3564    7.6354 H       1  UNL1        0.0000
      7 H           2.7253    7.5261    6.6141 H       1  UNL1        0.0000
      8 H           4.2966    3.1902    4.9300 H       1  UNL1        0.0000
      9 H           2.9523    3.2622    6.0471 H       1  UNL1        0.0000
     10 H           4.5534    3.7125    6.5778 H       1  UNL1        0.0000
@<TRIPOS>BOND
     1     8     3    1
     2     4     1    1
     3     1     3    1
     4     1     2    1
     5     3     9    1
     6     3    10    1
     7     7     2    1
     8     2     5    1
     9     2     6    1
