@<TRIPOS>MOLECULE
1
 13 12 0 0 0
SMALL
GASTEIGER

@<TRIPOS>ATOM
      1 SI          1.7394    3.2577   -0.8608 Si      1  UNL1        0.0000
      2 C           0.6133    4.7265   -1.3980 C.3     1  UNL1        0.0000
      3 C           3.1863    3.2578   -2.1321 C.3     1  UNL1        0.0000
      4 H           0.2228    4.5565   -2.3968 H       1  UNL1        0.0000
      5 H           1.1259    5.6828   -1.4130 H       1  UNL1        0.0000
      6 H          -0.2359    4.8216   -0.7288 H       1  UNL1        0.0000
      7 H           2.7995    3.2578   -3.1463 H       1  UNL1        0.0000
      8 H           3.8197    4.1338   -2.0311 H       1  UNL1        0.0000
      9 C           0.6133    1.7890   -1.3980 C.3     1  UNL1        0.0000
     10 H           3.8197    2.3817   -2.0311 H       1  UNL1        0.0000
     11 H           0.2229    1.9590   -2.3969 H       1  UNL1        0.0000
     12 H           1.1258    0.8327   -1.4130 H       1  UNL1        0.0000
     13 H          -0.2359    1.6940   -0.7288 H       1  UNL1        0.0000
@<TRIPOS>BOND
     1     7     3    1
     2    11     9    1
     3     4     2    1
     4     3    10    1
     5     3     8    1
     6     3     1    1
     7    12     9    1
     8     5     2    1
     9     9     1    1
    10     9    13    1
    11     2     1    1
    12     2     6    1
