@<TRIPOS>MOLECULE
1
 28 27 0 0 0
SMALL
GASTEIGER

@<TRIPOS>ATOM
      1 SI         -2.2920    2.4119    3.2614 Si      1  UNL1        0.0000
      2 C          -2.8609    3.6141    1.8271 C.3     1  UNL1        0.0000
      3 C          -3.2513    2.7468    0.6303 C.3     1  UNL1        0.0000
      4 C          -1.7647    4.5741    1.3739 C.3     1  UNL1        0.0000
      5 C          -4.0863    4.4453    2.2037 C.3     1  UNL1        0.0000
      6 C          -2.4791    3.1712    5.0573 C.3     1  UNL1        0.0000
      7 C          -3.9461    3.4183    5.4141 C.3     1  UNL1        0.0000
      8 C          -1.9514    2.1723    6.0864 C.3     1  UNL1        0.0000
      9 C          -1.7267    4.4875    5.2351 C.3     1  UNL1        0.0000
     10 H          -3.5464    1.5795    3.2861 H       1  UNL1        0.0000
     11 H          -3.5527    3.3703   -0.2112 H       1  UNL1        0.0000
     12 H          -4.0819    2.0946    0.8859 H       1  UNL1        0.0000
     13 H          -2.4161    2.1274    0.3169 H       1  UNL1        0.0000
     14 H          -2.1274    5.2050    0.5610 H       1  UNL1        0.0000
     15 H          -0.9021    4.0210    1.0121 H       1  UNL1        0.0000
     16 H          -1.4524    5.2285    2.1851 H       1  UNL1        0.0000
     17 H          -4.4550    4.9871    1.3314 H       1  UNL1        0.0000
     18 H          -3.8425    5.1788    2.9675 H       1  UNL1        0.0000
     19 H          -4.8879    3.8093    2.5686 H       1  UNL1        0.0000
     20 H          -4.0346    3.6783    6.4702 H       1  UNL1        0.0000
     21 H          -4.5448    2.5292    5.2352 H       1  UNL1        0.0000
     22 H          -4.3649    4.2332    4.8362 H       1  UNL1        0.0000
     23 H          -0.9327    1.8740    5.8642 H       1  UNL1        0.0000
     24 H          -2.5755    1.2826    6.1007 H       1  UNL1        0.0000
     25 H          -1.9683    2.6079    7.0866 H       1  UNL1        0.0000
     26 H          -1.9383    4.9176    6.2158 H       1  UNL1        0.0000
     27 H          -2.0286    5.2119    4.4833 H       1  UNL1        0.0000
     28 H          -0.6522    4.3428    5.1643 H       1  UNL1        0.0000
@<TRIPOS>BOND
     1    11     3    1
     2    13     3    1
     3    14     4    1
     4     3    12    1
     5     3     2    1
     6    15     4    1
     7    17     5    1
     8     4     2    1
     9     4    16    1
    10     2     5    1
    11     2     1    1
    12     5    19    1
    13     5    18    1
    14     1    10    1
    15     1     6    1
    16    27     9    1
    17    22     7    1
    18     6     9    1
    19     6     7    1
    20     6     8    1
    21    28     9    1
    22     9    26    1
    23    21     7    1
    24     7    20    1
    25    23     8    1
    26     8    24    1
    27     8    25    1
