@<TRIPOS>MOLECULE
1
 28 27 0 0 0
SMALL
GASTEIGER

@<TRIPOS>ATOM
      1 SI          2.7139    2.9749    6.0112 Si      1  UNL1        0.0000
      2 C           1.1283    1.7870    6.2284 C.3     1  UNL1        0.0000
      3 C           0.2726    2.1726    7.4415 C.3     1  UNL1        0.0000
      4 C           0.2216    1.8180    4.9971 C.3     1  UNL1        0.0000
      5 C           1.5493    0.3353    6.4873 C.3     1  UNL1        0.0000
      6 C           2.1258    4.8006    5.5648 C.3     1  UNL1        0.0000
      7 C           3.1789    5.7668    6.1027 C.3     1  UNL1        0.0000
      8 C           1.9864    5.0095    4.0605 C.3     1  UNL1        0.0000
      9 C           0.8085    5.2105    6.2194 C.3     1  UNL1        0.0000
     10 H           2.9080    3.2496    7.4914 H       1  UNL1        0.0000
     11 H           0.8861    2.2750    8.3331 H       1  UNL1        0.0000
     12 H          -0.4710    1.3967    7.6303 H       1  UNL1        0.0000
     13 H          -0.2569    3.1032    7.2841 H       1  UNL1        0.0000
     14 H           0.7422    1.5038    4.0983 H       1  UNL1        0.0000
     15 H          -0.6361    1.1578    5.1372 H       1  UNL1        0.0000
     16 H          -0.1600    2.8196    4.8256 H       1  UNL1        0.0000
     17 H           0.6916   -0.3302    6.3789 H       1  UNL1        0.0000
     18 H           2.3268   -0.0055    5.8129 H       1  UNL1        0.0000
     19 H           1.9164    0.2262    7.5044 H       1  UNL1        0.0000
     20 H           2.9268    6.7936    5.8366 H       1  UNL1        0.0000
     21 H           4.1567    5.5367    5.7019 H       1  UNL1        0.0000
     22 H           3.2294    5.7028    7.1864 H       1  UNL1        0.0000
     23 H           2.9172    4.7750    3.5534 H       1  UNL1        0.0000
     24 H           1.7304    6.0472    3.8418 H       1  UNL1        0.0000
     25 H           1.1935    4.3836    3.6562 H       1  UNL1        0.0000
     26 H           0.8481    5.0564    7.2937 H       1  UNL1        0.0000
     27 H          -0.0345    4.6612    5.8119 H       1  UNL1        0.0000
     28 H           0.6224    6.2709    6.0398 H       1  UNL1        0.0000
@<TRIPOS>BOND
     1    23     8    1
     2    25     8    1
     3    24     8    1
     4     8     6    1
     5    14     4    1
     6    16     4    1
     7     4    15    1
     8     4     2    1
     9     6     1    1
    10     6     7    1
    11     6     9    1
    12    21     7    1
    13    27     9    1
    14    18     5    1
    15    20     7    1
    16     1     2    1
    17     1    10    1
    18    28     9    1
    19     7    22    1
    20     9    26    1
    21     2     5    1
    22     2     3    1
    23    17     5    1
    24     5    19    1
    25    13     3    1
    26     3    12    1
    27     3    11    1
