@<TRIPOS>MOLECULE
1
 13 12 0 0 0
SMALL
GASTEIGER

@<TRIPOS>ATOM
      1 SI          6.0163    3.9760    4.3711 Si      1  UNL1        0.0000
      2 C           5.4920    5.4596    3.2334 C.3     1  UNL1        0.0000
      3 C           6.8142    4.9312    5.8563 C.3     1  UNL1        0.0000
      4 C           7.6180    3.4411    3.3973 C.3     1  UNL1        0.0000
      5 H           6.3882    5.9594    2.8765 H       1  UNL1        0.0000
      6 H           4.9249    5.1603    2.3576 H       1  UNL1        0.0000
      7 H           4.9033    6.2002    3.7598 H       1  UNL1        0.0000
      8 H           6.1150    5.1355    6.6590 H       1  UNL1        0.0000
      9 H           7.6508    4.3888    6.2841 H       1  UNL1        0.0000
     10 H           7.1955    5.8869    5.5111 H       1  UNL1        0.0000
     11 H           8.0275    2.4876    3.7186 H       1  UNL1        0.0000
     12 H           8.4030    4.1820    3.5274 H       1  UNL1        0.0000
     13 H           7.4322    3.3651    2.3296 H       1  UNL1        0.0000
@<TRIPOS>BOND
     1    13     4    1
     2     6     2    1
     3     5     2    1
     4     2     7    1
     5     2     1    1
     6     4    12    1
     7     4    11    1
     8     4     1    1
     9     1     3    1
    10    10     3    1
    11     3     9    1
    12     3     8    1
