@<TRIPOS>MOLECULE
1
 13 12 0 0 0
SMALL
GASTEIGER

@<TRIPOS>ATOM
      1 SI          2.8357    2.2257    5.7802 Si      1  UNL1        0.0000
      2 C           2.8780    1.6746    7.6383 C.3     1  UNL1        0.0000
      3 C           4.2079    1.0376    5.0810 C.3     1  UNL1        0.0000
      4 C           3.7151    3.9388    5.8399 C.3     1  UNL1        0.0000
      5 H           2.1852    2.2219    8.2667 H       1  UNL1        0.0000
      6 H           3.8719    1.8463    8.0401 H       1  UNL1        0.0000
      7 H           2.6624    0.6180    7.7605 H       1  UNL1        0.0000
      8 H           4.8679    1.5527    4.3902 H       1  UNL1        0.0000
      9 H           3.8006    0.1751    4.5606 H       1  UNL1        0.0000
     10 H           4.8312    0.6594    5.8850 H       1  UNL1        0.0000
     11 H           4.5450    3.9166    6.5387 H       1  UNL1        0.0000
     12 H           3.0420    4.7279    6.1537 H       1  UNL1        0.0000
     13 H           4.1163    4.2192    4.8719 H       1  UNL1        0.0000
@<TRIPOS>BOND
     1     8     3    1
     2     9     3    1
     3    13     4    1
     4     3     1    1
     5     3    10    1
     6     1     4    1
     7     1     2    1
     8     4    12    1
     9     4    11    1
    10     2     7    1
    11     2     6    1
    12     2     5    1
