@<TRIPOS>MOLECULE
2
 22 21 0 0 0
SMALL
GASTEIGER

@<TRIPOS>ATOM
      1 CL          0.5573    5.7811    4.7999 Cl      1  UNL1        0.0000
      2 SI         -0.2673    4.0255    5.6330 Si      1  UNL1        0.0000
      3 C           0.0390    4.3021    7.5501 C.3     1  UNL1        0.0000
      4 C          -1.0981    3.7502    8.4074 C.3     1  UNL1        0.0000
      5 C           0.3280    5.7474    7.9495 C.3     1  UNL1        0.0000
      6 C          -2.1952    4.3525    5.3762 C.3     1  UNL1        0.0000
      7 C          -2.6177    5.7900    5.6806 C.3     1  UNL1        0.0000
      8 C          -2.6987    3.9870    3.9806 C.3     1  UNL1        0.0000
      9 H           0.9356    3.7313    7.8017 H       1  UNL1        0.0000
     10 H          -1.3211    2.7172    8.1504 H       1  UNL1        0.0000
     11 H          -2.0035    4.3372    8.2787 H       1  UNL1        0.0000
     12 H          -0.8283    3.7852    9.4628 H       1  UNL1        0.0000
     13 H           1.2052    6.1210    7.4300 H       1  UNL1        0.0000
     14 H          -0.5058    6.4021    7.7128 H       1  UNL1        0.0000
     15 H           0.5155    5.8098    9.0214 H       1  UNL1        0.0000
     16 H          -2.7217    3.7057    6.0859 H       1  UNL1        0.0000
     17 H          -2.4108    6.0507    6.7143 H       1  UNL1        0.0000
     18 H          -3.6872    5.9141    5.5089 H       1  UNL1        0.0000
     19 H          -2.0848    6.4881    5.0404 H       1  UNL1        0.0000
     20 H          -3.7874    4.0284    3.9469 H       1  UNL1        0.0000
     21 H          -2.3198    4.6932    3.2463 H       1  UNL1        0.0000
     22 H          -2.3898    2.9849    3.6919 H       1  UNL1        0.0000
@<TRIPOS>BOND
     1    21     8    1
     2    22     8    1
     3    20     8    1
     4     8     6    1
     5     1     2    1
     6    19     7    1
     7     6     2    1
     8     6     7    1
     9     6    16    1
    10    18     7    1
    11     2     3    1
    12     7    17    1
    13    13     5    1
    14     3     9    1
    15     3     5    1
    16     3     4    1
    17    14     5    1
    18     5    15    1
    19    10     4    1
    20    11     4    1
    21     4    12    1
