@<TRIPOS>MOLECULE
1
 14 14 0 0 0
SMALL
GASTEIGER

@<TRIPOS>ATOM
      1 SI          1.3508    9.2104    4.2897 Si      1  UNL1        0.0000
      2 H          -0.1183    9.0199    4.1328 H       1  UNL1        0.0000
      3 H           1.3362    9.5484    5.7498 H       1  UNL1        0.0000
      4 C           1.9485    7.4069    4.3477 C.ar    1  UNL1        0.0000
      5 C           3.2260    7.0794    4.7837 C.ar    1  UNL1        0.0000
      6 H           3.8891    7.8647    5.1178 H       1  UNL1        0.0000
      7 C           3.6728    5.7707    4.8052 C.ar    1  UNL1        0.0000
      8 H           4.6729    5.5448    5.1499 H       1  UNL1        0.0000
      9 C           2.8399    4.7487    4.3828 C.ar    1  UNL1        0.0000
     10 H           3.1854    3.7243    4.3922 H       1  UNL1        0.0000
     11 C           1.5571    5.0501    3.9588 C.ar    1  UNL1        0.0000
     12 H           0.8936    4.2570    3.6399 H       1  UNL1        0.0000
     13 C           1.1236    6.3640    3.9493 C.ar    1  UNL1        0.0000
     14 H           0.1125    6.5883    3.6390 H       1  UNL1        0.0000
@<TRIPOS>BOND
     1    14    13    1
     2    12    11    1
     3    13    11   ar
     4    13     4   ar
     5    11     9   ar
     6     2     1    1
     7     1     4    1
     8     1     3    1
     9     4     5   ar
    10     9    10    1
    11     9     7   ar
    12     5     7   ar
    13     5     6    1
    14     7     8    1
