@<TRIPOS>MOLECULE
1
 27 26 0 0 0
SMALL
GASTEIGER

@<TRIPOS>ATOM
      1 SI          4.3682    1.9669   14.8802 Si      1  UNL1        0.0000
      2 O           5.0693    3.0245   13.8153 O.3     1  UNL1        0.0000
      3 O           3.8564    0.7616   13.8726 O.3     1  UNL1        0.0000
      4 N           2.6713    2.9240   14.5801 N.4     1  UNL1        0.0000
      5 H           2.6723    3.0437   13.5690 H       1  UNL1        0.0000
      6 C           2.6799    4.2341   15.2073 C.3     1  UNL1        0.0000
      7 H           1.7817    4.8045   14.9623 H       1  UNL1        0.0000
      8 H           3.5593    4.7802   14.8792 H       1  UNL1        0.0000
      9 H           2.7414    4.1000   16.2861 H       1  UNL1        0.0000
     10 C           1.5049    2.1478   14.9645 C.3     1  UNL1        0.0000
     11 H           0.5768    2.6673   14.7174 H       1  UNL1        0.0000
     12 H           1.5400    1.9684   16.0364 H       1  UNL1        0.0000
     13 H           1.5347    1.1911   14.4521 H       1  UNL1        0.0000
     14 C           6.4333    3.3337   13.7283 C.3     1  UNL1        0.0000
     15 H           6.8083    3.5890   14.7275 H       1  UNL1        0.0000
     16 H           6.5123    4.2152   13.0828 H       1  UNL1        0.0000
     17 C           7.2503    2.1850   13.1569 C.3     1  UNL1        0.0000
     18 H           8.2866    2.4880   13.0342 H       1  UNL1        0.0000
     19 H           6.8477    1.8849   12.1929 H       1  UNL1        0.0000
     20 H           7.2059    1.3334   13.8304 H       1  UNL1        0.0000
     21 C           4.1228   -0.6144   13.9240 C.3     1  UNL1        0.0000
     22 H           5.1941   -0.7801   14.0746 H       1  UNL1        0.0000
     23 H           3.8441   -1.0199   12.9447 H       1  UNL1        0.0000
     24 C           3.3414   -1.3121   15.0277 C.3     1  UNL1        0.0000
     25 H           3.5869   -2.3702   15.0403 H       1  UNL1        0.0000
     26 H           2.2713   -1.1991   14.8717 H       1  UNL1        0.0000
     27 H           3.6046   -0.8701   15.9859 H       1  UNL1        0.0000
@<TRIPOS>BOND
     1    19    17    1
     2    23    21    1
     3    18    17    1
     4    16    14    1
     5    17    14    1
     6    17    20    1
     7     5     4    1
     8    14     2    1
     9    14    15    1
    10     2     1    1
    11     3    21    1
    12     3     1    1
    13    21    22    1
    14    21    24    1
    15    13    10    1
    16     4     1    1
    17     4    10    1
    18     4     6    1
    19    11    10    1
    20    26    24    1
    21     8     6    1
    22     7     6    1
    23    10    12    1
    24    24    25    1
    25    24    27    1
    26     6     9    1
