@<TRIPOS>MOLECULE
1
 77 79 0 0 0
SMALL
GASTEIGER

@<TRIPOS>ATOM
      1 SI          5.9738    9.7114   11.4353 Si      1  UNL1        0.0000
      2 N           4.7476    8.3869   10.9247 N.pl3   1  UNL1        0.0000
      3 N           4.6528   10.8456   12.1541 N.pl3   1  UNL1        0.0000
      4 C           3.4533    8.9132   12.8387 C.2     1  UNL1        0.0000
      5 H           2.7395    8.5348   13.5552 H       1  UNL1        0.0000
      6 C           3.7169   10.2807   12.8907 C.3     1  UNL1        0.0000
      7 C           2.8597   11.0885   13.8227 C.3     1  UNL1        0.0000
      8 H           2.9903   12.1556   13.6642 H       1  UNL1        0.0000
      9 H           3.1309   10.8494   14.8512 H       1  UNL1        0.0000
     10 H           1.8101   10.8298   13.6918 H       1  UNL1        0.0000
     11 C           5.6156   12.8634   13.1741 C.ar    1  UNL1        0.0000
     12 C           4.8422   12.2556   12.1745 C.ar    1  UNL1        0.0000
     13 C           5.8730    6.8554    9.3518 C.ar    1  UNL1        0.0000
     14 C           4.7955    7.6832    9.6935 C.ar    1  UNL1        0.0000
     15 C           3.2696    6.6537   11.8657 C.3     1  UNL1        0.0000
     16 H           3.5027    6.1068   10.9562 H       1  UNL1        0.0000
     17 H           2.1912    6.6929   12.0017 H       1  UNL1        0.0000
     18 H           3.6828    6.1094   12.7156 H       1  UNL1        0.0000
     19 C           3.8662    8.0334   11.8504 C.2     1  UNL1        0.0000
     20 C           5.8087   14.2385   13.1334 C.ar    1  UNL1        0.0000
     21 H           6.4070   14.7110   13.8967 H       1  UNL1        0.0000
     22 C           6.2071   12.1073   14.3380 C.3     1  UNL1        0.0000
     23 H           5.9631   11.0503   14.2303 H       1  UNL1        0.0000
     24 C           3.7247    7.8323    8.7919 C.ar    1  UNL1        0.0000
     25 C           2.5237    8.7082    9.0733 C.3     1  UNL1        0.0000
     26 H           2.6770    9.2376   10.0174 H       1  UNL1        0.0000
     27 C           2.3521    9.7444    7.9593 C.3     1  UNL1        0.0000
     28 H           3.2912   10.2552    7.7649 H       1  UNL1        0.0000
     29 H           1.6005   10.4768    8.2445 H       1  UNL1        0.0000
     30 H           2.0264    9.2743    7.0348 H       1  UNL1        0.0000
     31 C           3.3248   12.4571   10.1371 C.3     1  UNL1        0.0000
     32 H           3.4878   11.3786   10.1028 H       1  UNL1        0.0000
     33 C           4.8260    6.3631    7.2287 C.ar    1  UNL1        0.0000
     34 H           4.8393    5.8519    6.2776 H       1  UNL1        0.0000
     35 C           7.0119    6.5413   10.2893 C.3     1  UNL1        0.0000
     36 H           6.9619    7.1984   11.1601 H       1  UNL1        0.0000
     37 C           8.3697    6.7811    9.6285 C.3     1  UNL1        0.0000
     38 H           8.5797    6.0497    8.8517 H       1  UNL1        0.0000
     39 H           9.1558    6.7187   10.3756 H       1  UNL1        0.0000
     40 H           8.3978    7.7746    9.1897 H       1  UNL1        0.0000
     41 C           1.8676   12.7128   10.5366 C.3     1  UNL1        0.0000
     42 H           1.6340   12.2240   11.4790 H       1  UNL1        0.0000
     43 H           1.1929   12.3284    9.7746 H       1  UNL1        0.0000
     44 H           1.6844   13.7796   10.6493 H       1  UNL1        0.0000
     45 C           4.2446   13.0453   11.1814 C.ar    1  UNL1        0.0000
     46 C           5.2376   15.0180   12.1505 C.ar    1  UNL1        0.0000
     47 H           5.3926   16.0867   12.1398 H       1  UNL1        0.0000
     48 C           4.4467   14.4187   11.1926 C.ar    1  UNL1        0.0000
     49 H           3.9730   15.0343   10.4449 H       1  UNL1        0.0000
     50 C           3.7582    7.1635    7.5765 C.ar    1  UNL1        0.0000
     51 H           2.9336    7.2690    6.8887 H       1  UNL1        0.0000
     52 C           5.8691    6.2161    8.1175 C.ar    1  UNL1        0.0000
     53 H           6.6961    5.5762    7.8529 H       1  UNL1        0.0000
     54 C           6.8873    5.0896   10.7621 C.3     1  UNL1        0.0000
     55 H           5.9532    4.9410   11.2997 H       1  UNL1        0.0000
     56 H           7.7103    4.8389   11.4255 H       1  UNL1        0.0000
     57 H           6.9068    4.4010    9.9197 H       1  UNL1        0.0000
     58 C           3.5977   13.0361    8.7474 C.3     1  UNL1        0.0000
     59 H           3.3195   14.0853    8.6931 H       1  UNL1        0.0000
     60 H           3.0153   12.5069    7.9981 H       1  UNL1        0.0000
     61 H           4.6514   12.9455    8.4965 H       1  UNL1        0.0000
     62 C           5.6240   12.6199   15.6607 C.3     1  UNL1        0.0000
     63 H           5.9617   13.6323   15.8681 H       1  UNL1        0.0000
     64 H           5.9469   11.9845   16.4825 H       1  UNL1        0.0000
     65 H           4.5371   12.6263   15.6396 H       1  UNL1        0.0000
     66 C           1.2420    7.8785    9.1922 C.3     1  UNL1        0.0000
     67 H           1.0180    7.3799    8.2521 H       1  UNL1        0.0000
     68 H           0.4038    8.5252    9.4437 H       1  UNL1        0.0000
     69 H           1.3339    7.1189    9.9623 H       1  UNL1        0.0000
     70 C           6.1695   10.5215    9.6944 C.3     1  UNL1        0.0000
     71 H           7.0271   10.0767    9.2030 H       1  UNL1        0.0000
     72 H           6.3764   11.5823    9.7908 H       1  UNL1        0.0000
     73 H           5.3154   10.3936    9.0354 H       1  UNL1        0.0000
     74 C           7.7305   12.2347   14.3568 C.3     1  UNL1        0.0000
     75 H           8.1457   11.7791   13.4625 H       1  UNL1        0.0000
     76 H           8.1326   11.7236   15.2270 H       1  UNL1        0.0000
     77 H           8.0407   13.2758   14.4013 H       1  UNL1        0.0000
@<TRIPOS>BOND
     1    34    33    1
     2    51    50    1
     3    30    27    1
     4    33    50   ar
     5    33    52   ar
     6    50    24   ar
     7    28    27    1
     8    53    52    1
     9    27    29    1
    10    27    25    1
    11    60    58    1
    12    52    13   ar
    13    67    66    1
    14    61    58    1
    15    59    58    1
    16    58    31    1
    17    24    25    1
    18    24    14   ar
    19    38    37    1
    20    73    70    1
    21    25    66    1
    22    25    26    1
    23    40    37    1
    24    66    68    1
    25    66    69    1
    26    71    70    1
    27    13    14   ar
    28    13    35    1
    29    37    35    1
    30    37    39    1
    31    14     2    1
    32    70    72    1
    33    70     1    1
    34    43    41    1
    35    57    54    1
    36    32    31    1
    37    31    41    1
    38    31    45    1
    39    35    54    1
    40    35    36    1
    41    49    48    1
    42    41    44    1
    43    41    42    1
    44    54    55    1
    45    54    56    1
    46     2     1    1
    47     2    19    1
    48    16    15    1
    49    45    48   ar
    50    45    12   ar
    51    48    46   ar
    52     1     3    1
    53    19    15    1
    54    19     4    2
    55    15    17    1
    56    15    18    1
    57    47    46    1
    58    46    20   ar
    59     3    12    1
    60     3     6    1
    61    12    11   ar
    62     4     6    1
    63     4     5    1
    64     6     7    1
    65    20    11   ar
    66    20    21    1
    67    11    22    1
    68    75    74    1
    69     8     7    1
    70    10     7    1
    71     7     9    1
    72    23    22    1
    73    22    74    1
    74    22    62    1
    75    74    77    1
    76    74    76    1
    77    65    62    1
    78    62    63    1
    79    62    64    1
