@<TRIPOS>MOLECULE
1
 24 25 0 0 0
SMALL
GASTEIGER

@<TRIPOS>ATOM
      1 SI          0.8347    4.5652   10.8981 Si      1  UNL1        0.0000
      2 C           2.4040    4.6633    9.8261 C.ar    1  UNL1        0.0000
      3 C           3.1674    5.8268    9.8138 C.ar    1  UNL1        0.0000
      4 C           4.3330    5.9081    9.0739 C.ar    1  UNL1        0.0000
      5 C           4.7605    4.8215    8.3293 C.ar    1  UNL1        0.0000
      6 C           4.0134    3.6556    8.3301 C.ar    1  UNL1        0.0000
      7 C           2.8476    3.5827    9.0702 C.ar    1  UNL1        0.0000
      8 C           1.2673    3.5938   12.4806 C.ar    1  UNL1        0.0000
      9 C           2.0459    2.4424   12.4223 C.ar    1  UNL1        0.0000
     10 C           2.3310    1.7148   13.5638 C.ar    1  UNL1        0.0000
     11 C           1.8404    2.1287   14.7908 C.ar    1  UNL1        0.0000
     12 C           1.0735    3.2794   14.8693 C.ar    1  UNL1        0.0000
     13 C           0.7899    4.0006   13.7233 C.ar    1  UNL1        0.0000
     14 H           0.6486    5.9775   11.3691 H       1  UNL1        0.0000
     15 H           2.8414    6.6787   10.3917 H       1  UNL1        0.0000
     16 H           4.9113    6.8204    9.0785 H       1  UNL1        0.0000
     17 H           5.6710    4.8826    7.7519 H       1  UNL1        0.0000
     18 H           4.3404    2.8015    7.7541 H       1  UNL1        0.0000
     19 H           2.2672    2.6712    9.0548 H       1  UNL1        0.0000
     20 H           2.4497    2.1259   11.4713 H       1  UNL1        0.0000
     21 H           2.9445    0.8275   13.5001 H       1  UNL1        0.0000
     22 H           2.0627    1.5628   15.6831 H       1  UNL1        0.0000
     23 H           0.6982    3.6148   15.8252 H       1  UNL1        0.0000
     24 H           0.1912    4.8981   13.7915 H       1  UNL1        0.0000
@<TRIPOS>BOND
     1    17     5    1
     2    18     6    1
     3     5     6   ar
     4     5     4   ar
     5     6     7   ar
     6    19     7    1
     7     7     2   ar
     8     4    16    1
     9     4     3   ar
    10     3     2   ar
    11     3    15    1
    12     2     1    1
    13     1    14    1
    14     1     8    1
    15    20     9    1
    16     9     8   ar
    17     9    10   ar
    18     8    13   ar
    19    21    10    1
    20    10    11   ar
    21    13    24    1
    22    13    12   ar
    23    11    12   ar
    24    11    22    1
    25    12    23    1
