@<TRIPOS>MOLECULE
1
 24 25 0 0 0
SMALL
GASTEIGER

@<TRIPOS>ATOM
      1 SI          8.7983    5.9304    2.6767 Si      1  UNL1        0.0000
      2 C           9.7408    6.9761    3.9613 C.ar    1  UNL1        0.0000
      3 C          11.0423    6.6656    4.3487 C.ar    1  UNL1        0.0000
      4 C          11.6977    7.3927    5.3266 C.ar    1  UNL1        0.0000
      5 C          11.0620    8.4579    5.9414 C.ar    1  UNL1        0.0000
      6 C           9.7683    8.7867    5.5698 C.ar    1  UNL1        0.0000
      7 C           9.1188    8.0512    4.5954 C.ar    1  UNL1        0.0000
      8 C           8.2011    7.0744    1.2667 C.ar    1  UNL1        0.0000
      9 C           8.5112    8.4302    1.1933 C.ar    1  UNL1        0.0000
     10 C           7.9812    9.2368    0.2006 C.ar    1  UNL1        0.0000
     11 C           7.1305    8.7001   -0.7497 C.ar    1  UNL1        0.0000
     12 C           6.8209    7.3498   -0.7045 C.ar    1  UNL1        0.0000
     13 C           7.3486    6.5506    0.2928 C.ar    1  UNL1        0.0000
     14 H           9.8616    5.0782    2.0616 H       1  UNL1        0.0000
     15 H          11.5499    5.8397    3.8708 H       1  UNL1        0.0000
     16 H          12.7073    7.1308    5.6109 H       1  UNL1        0.0000
     17 H          11.5706    9.0285    6.7050 H       1  UNL1        0.0000
     18 H           9.2663    9.6185    6.0443 H       1  UNL1        0.0000
     19 H           8.1055    8.3107    4.3175 H       1  UNL1        0.0000
     20 H           9.1779    8.8579    1.9279 H       1  UNL1        0.0000
     21 H           8.2316   10.2876    0.1680 H       1  UNL1        0.0000
     22 H           6.7122    9.3280   -1.5230 H       1  UNL1        0.0000
     23 H           6.1640    6.9235   -1.4503 H       1  UNL1        0.0000
     24 H           7.1069    5.4925    0.3219 H       1  UNL1        0.0000
@<TRIPOS>BOND
     1    22    11    1
     2    23    12    1
     3    11    12   ar
     4    11    10   ar
     5    12    13   ar
     6    21    10    1
     7    10     9   ar
     8    13    24    1
     9    13     8   ar
    10     9     8   ar
    11     9    20    1
    12     8     1    1
    13    14     1    1
    14     1     2    1
    15    15     3    1
    16     2     3   ar
    17     2     7   ar
    18    19     7    1
    19     3     4   ar
    20     7     6   ar
    21     4    16    1
    22     4     5   ar
    23     6     5   ar
    24     6    18    1
    25     5    17    1
