@<TRIPOS>MOLECULE
1
 34 36 0 0 0
SMALL
GASTEIGER

@<TRIPOS>ATOM
      1 SI          2.4348    1.9265    3.2692 Si      1  UNL1        0.0000
      2 N           1.2965    0.1972    3.1194 N.4     1  UNL1        0.0000
      3 C           2.6188    1.3754    5.0912 C.ar    1  UNL1        0.0000
      4 C           3.5814    1.7971    5.9940 C.ar    1  UNL1        0.0000
      5 C           3.6220    1.2632    7.2716 C.ar    1  UNL1        0.0000
      6 C           2.7044    0.2978    7.6519 C.ar    1  UNL1        0.0000
      7 C           1.7405   -0.1389    6.7564 C.ar    1  UNL1        0.0000
      8 C           1.7035    0.4017    5.4842 C.ar    1  UNL1        0.0000
      9 C           0.6916    0.0237    4.4418 C.3     1  UNL1        0.0000
     10 C           0.2854    0.2831    2.0787 C.3     1  UNL1        0.0000
     11 C           2.1964   -0.9150    2.8464 C.3     1  UNL1        0.0000
     12 C           0.9283    3.1284    3.3638 C.ar    1  UNL1        0.0000
     13 C           0.4692    3.7349    2.1963 C.ar    1  UNL1        0.0000
     14 C          -0.5838    4.6311    2.2190 C.ar    1  UNL1        0.0000
     15 C          -1.1954    4.9502    3.4201 C.ar    1  UNL1        0.0000
     16 C          -0.7416    4.3725    4.5936 C.ar    1  UNL1        0.0000
     17 C           0.3106    3.4739    4.5643 C.ar    1  UNL1        0.0000
     18 H           4.2989    2.5449    5.6902 H       1  UNL1        0.0000
     19 H           4.3736    1.5954    7.9721 H       1  UNL1        0.0000
     20 H           2.7410   -0.1212    8.6464 H       1  UNL1        0.0000
     21 H           1.0249   -0.8942    7.0497 H       1  UNL1        0.0000
     22 H           0.3317   -1.0029    4.5762 H       1  UNL1        0.0000
     23 H          -0.1657    0.7002    4.5168 H       1  UNL1        0.0000
     24 H           0.7676    0.4108    1.1128 H       1  UNL1        0.0000
     25 H          -0.3275   -0.6218    2.0480 H       1  UNL1        0.0000
     26 H          -0.3563    1.1429    2.2603 H       1  UNL1        0.0000
     27 H           2.7241   -0.7378    1.9106 H       1  UNL1        0.0000
     28 H           2.9300   -0.9931    3.6456 H       1  UNL1        0.0000
     29 H           1.6446   -1.8561    2.7762 H       1  UNL1        0.0000
     30 H           0.9529    3.5030    1.2575 H       1  UNL1        0.0000
     31 H          -0.9239    5.0871    1.3006 H       1  UNL1        0.0000
     32 H          -2.0155    5.6528    3.4422 H       1  UNL1        0.0000
     33 H          -1.2054    4.6262    5.5360 H       1  UNL1        0.0000
     34 H           0.6641    3.0408    5.4895 H       1  UNL1        0.0000
@<TRIPOS>BOND
     1    24    10    1
     2    30    13    1
     3    31    14    1
     4    27    11    1
     5    25    10    1
     6    10    26    1
     7    10     2    1
     8    13    14   ar
     9    13    12   ar
    10    14    15   ar
    11    29    11    1
    12    11     2    1
    13    11    28    1
    14     2     1    1
    15     2     9    1
    16     1    12    1
    17     1     3    1
    18    12    17   ar
    19    15    32    1
    20    15    16   ar
    21     9    23    1
    22     9    22    1
    23     9     8    1
    24    17    16   ar
    25    17    34    1
    26    16    33    1
    27     3     8   ar
    28     3     4   ar
    29     8     7   ar
    30    18     4    1
    31     4     5   ar
    32     7    21    1
    33     7     6   ar
    34     5     6   ar
    35     5    19    1
    36     6    20    1
