@<TRIPOS>MOLECULE
1
 34 36 0 0 0
SMALL
GASTEIGER

@<TRIPOS>ATOM
      1 SI         12.8134    1.7968   -0.3751 Si      1  UNL1        0.0000
      2 C          11.6525    2.7721   -1.5783 C.ar    1  UNL1        0.0000
      3 C          11.1198    3.9994   -1.2086 C.ar    1  UNL1        0.0000
      4 C          10.2548    4.6951   -2.0339 C.ar    1  UNL1        0.0000
      5 C           9.9033    4.1651   -3.2638 C.ar    1  UNL1        0.0000
      6 C          10.4161    2.9376   -3.6491 C.ar    1  UNL1        0.0000
      7 C          11.2757    2.2503   -2.8104 C.ar    1  UNL1        0.0000
      8 C          11.9332    0.0951   -0.5466 C.ar    1  UNL1        0.0000
      9 C          10.5971    0.0078   -0.1720 C.ar    1  UNL1        0.0000
     10 C           9.9007   -1.1842   -0.2477 C.ar    1  UNL1        0.0000
     11 C          10.5374   -2.3277   -0.7026 C.ar    1  UNL1        0.0000
     12 C          11.8655   -2.2603   -1.0868 C.ar    1  UNL1        0.0000
     13 C          12.5509   -1.0594   -1.0083 C.ar    1  UNL1        0.0000
     14 C          14.4278    1.5641   -1.3950 C.ar    1  UNL1        0.0000
     15 C          14.6509    2.1953   -2.6126 C.ar    1  UNL1        0.0000
     16 C          15.8480    2.0501   -3.2927 C.ar    1  UNL1        0.0000
     17 C          16.8563    1.2630   -2.7639 C.ar    1  UNL1        0.0000
     18 C          16.6571    0.6274   -1.5493 C.ar    1  UNL1        0.0000
     19 C          15.4591    0.7866   -0.8768 C.ar    1  UNL1        0.0000
     20 H          11.3966    4.4112   -0.2433 H       1  UNL1        0.0000
     21 H           9.8506    5.6504   -1.7230 H       1  UNL1        0.0000
     22 H           9.2297    4.7034   -3.9164 H       1  UNL1        0.0000
     23 H          10.1400    2.5160   -4.6062 H       1  UNL1        0.0000
     24 H          11.6626    1.2876   -3.1145 H       1  UNL1        0.0000
     25 H          10.0970    0.9028    0.1738 H       1  UNL1        0.0000
     26 H           8.8592   -1.2277    0.0443 H       1  UNL1        0.0000
     27 H           9.9991   -3.2635   -0.7627 H       1  UNL1        0.0000
     28 H          12.3668   -3.1471   -1.4510 H       1  UNL1        0.0000
     29 H          13.5858   -1.0167   -1.3171 H       1  UNL1        0.0000
     30 H          13.8684    2.8053   -3.0427 H       1  UNL1        0.0000
     31 H          15.9956    2.5506   -4.2403 H       1  UNL1        0.0000
     32 H          17.7913    1.1451   -3.2936 H       1  UNL1        0.0000
     33 H          17.4399    0.0106   -1.1278 H       1  UNL1        0.0000
     34 H          15.3134    0.2984    0.0768 H       1  UNL1        0.0000
@<TRIPOS>BOND
     1    23     6    1
     2    31    16    1
     3    22     5    1
     4     6     5   ar
     5     6     7   ar
     6    32    17    1
     7    16    17   ar
     8    16    15   ar
     9     5     4   ar
    10    24     7    1
    11    30    15    1
    12     7     2   ar
    13    17    18   ar
    14    15    14   ar
    15     4    21    1
    16     4     3   ar
    17     2     3   ar
    18     2     1    1
    19    18    33    1
    20    18    19   ar
    21    28    12    1
    22    14    19   ar
    23    14     1    1
    24    29    13    1
    25     3    20    1
    26    12    13   ar
    27    12    11   ar
    28    13     8   ar
    29    19    34    1
    30    27    11    1
    31    11    10   ar
    32     8     1    1
    33     8     9   ar
    34    10     9   ar
    35    10    26    1
    36     9    25    1
