@<TRIPOS>MOLECULE
4
 46 48 0 0 0
SMALL
GASTEIGER

@<TRIPOS>ATOM
      1 S           3.8567    9.6532    3.1486 S.3     1  UNL1        0.0000
      2 S           2.0114    8.7118    5.6877 S.3     1  UNL1        0.0000
      3 S           2.3801    6.4620    2.8142 S.3     1  UNL1        0.0000
      4 SI          1.8946    8.5730    3.4511 Si      1  UNL1        0.0000
      5 C           4.3075    9.6370    1.4366 C.ar    1  UNL1        0.0000
      6 C           4.1943    8.5121    0.6323 C.ar    1  UNL1        0.0000
      7 C           4.5902    8.5712   -0.6902 C.ar    1  UNL1        0.0000
      8 C           5.1234    9.7335   -1.2331 C.ar    1  UNL1        0.0000
      9 C           5.2550   10.8460   -0.4106 C.ar    1  UNL1        0.0000
     10 C           4.8523   10.8035    0.9093 C.ar    1  UNL1        0.0000
     11 C           5.5761    9.7728   -2.6617 C.3     1  UNL1        0.0000
     12 C           3.5599    8.0595    6.2661 C.ar    1  UNL1        0.0000
     13 C           3.5846    6.8121    6.8682 C.ar    1  UNL1        0.0000
     14 C           4.7588    6.3426    7.4248 C.ar    1  UNL1        0.0000
     15 C           5.9194    7.1033    7.3867 C.ar    1  UNL1        0.0000
     16 C           5.8793    8.3459    6.7660 C.ar    1  UNL1        0.0000
     17 C           4.7092    8.8317    6.2174 C.ar    1  UNL1        0.0000
     18 C           7.1838    6.6207    8.0312 C.3     1  UNL1        0.0000
     19 C           3.7598    5.8106    3.7221 C.ar    1  UNL1        0.0000
     20 C           3.5838    4.5968    4.3721 C.ar    1  UNL1        0.0000
     21 C           4.6572    3.9803    4.9816 C.ar    1  UNL1        0.0000
     22 C           5.9195    4.5611    4.9606 C.ar    1  UNL1        0.0000
     23 C           6.0729    5.7862    4.3268 C.ar    1  UNL1        0.0000
     24 C           5.0090    6.4084    3.7019 C.ar    1  UNL1        0.0000
     25 C           7.0893    3.8555    5.5773 C.3     1  UNL1        0.0000
     26 H           3.8005    7.5926    1.0348 H       1  UNL1        0.0000
     27 H           4.4910    7.6900   -1.3084 H       1  UNL1        0.0000
     28 H           5.6769   11.7585   -0.8079 H       1  UNL1        0.0000
     29 H           4.9544   11.6694    1.5459 H       1  UNL1        0.0000
     30 H           5.5865   10.7929   -3.0390 H       1  UNL1        0.0000
     31 H           6.5871    9.3719   -2.7433 H       1  UNL1        0.0000
     32 H           4.9262    9.1684   -3.2914 H       1  UNL1        0.0000
     33 H           2.6843    6.2174    6.9081 H       1  UNL1        0.0000
     34 H           4.7678    5.3724    7.9008 H       1  UNL1        0.0000
     35 H           6.7746    8.9502    6.7241 H       1  UNL1        0.0000
     36 H           4.6826    9.8051    5.7535 H       1  UNL1        0.0000
     37 H           7.1395    5.5524    8.2252 H       1  UNL1        0.0000
     38 H           8.0441    6.8319    7.3990 H       1  UNL1        0.0000
     39 H           7.3361    7.1341    8.9815 H       1  UNL1        0.0000
     40 H           2.6077    4.1350    4.3817 H       1  UNL1        0.0000
     41 H           4.5140    3.0293    5.4758 H       1  UNL1        0.0000
     42 H           7.0435    6.2607    4.3040 H       1  UNL1        0.0000
     43 H           5.1588    7.3520    3.2028 H       1  UNL1        0.0000
     44 H           6.8066    3.3828    6.5159 H       1  UNL1        0.0000
     45 H           7.4473    3.0734    4.9061 H       1  UNL1        0.0000
     46 H           7.9080    4.5465    5.7599 H       1  UNL1        0.0000
@<TRIPOS>BOND
     1    32    11    1
     2    30    11    1
     3    31    11    1
     4    11     8    1
     5    27     7    1
     6     8     7   ar
     7     8     9   ar
     8    28     9    1
     9     7     6   ar
    10     9    10   ar
    11     6    26    1
    12     6     5   ar
    13    10     5   ar
    14    10    29    1
    15     5     1    1
    16     3     4    1
    17     3    19    1
    18     1     4    1
    19    43    24    1
    20     4     2    1
    21    24    19   ar
    22    24    23   ar
    23    19    20   ar
    24    42    23    1
    25    23    22   ar
    26    20    40    1
    27    20    21   ar
    28    45    25    1
    29    22    21   ar
    30    22    25    1
    31    21    41    1
    32    25    46    1
    33    25    44    1
    34     2    12    1
    35    36    17    1
    36    17    12   ar
    37    17    16   ar
    38    12    13   ar
    39    35    16    1
    40    16    15   ar
    41    13    33    1
    42    13    14   ar
    43    15    14   ar
    44    15    18    1
    45    38    18    1
    46    14    34    1
    47    18    37    1
    48    18    39    1
