@<TRIPOS>MOLECULE
3
 37 38 0 0 0
SMALL
GASTEIGER

@<TRIPOS>ATOM
      1 S          14.5837    2.3279   -3.2144 S.3     1  UNL1        0.0000
      2 S          15.1190    0.3102   -0.3252 S.3     1  UNL1        0.0000
      3 SI         14.0833    2.1913   -1.0418 Si      1  UNL1        0.0000
      4 C          13.6401    0.0051   -4.3094 C.ar    1  UNL1        0.0000
      5 C          13.7360   -1.3231   -4.6858 C.ar    1  UNL1        0.0000
      6 C          14.9054   -2.0416   -4.4729 C.ar    1  UNL1        0.0000
      7 C          15.9855   -1.3941   -3.8787 C.ar    1  UNL1        0.0000
      8 C          15.8992   -0.0716   -3.4900 C.ar    1  UNL1        0.0000
      9 C          14.7194    0.6250   -3.7009 C.ar    1  UNL1        0.0000
     10 C          15.0204   -3.4720   -4.8960 C.3     1  UNL1        0.0000
     11 C          12.8197   -0.9342    0.5544 C.ar    1  UNL1        0.0000
     12 C          11.9592   -2.0132    0.6361 C.ar    1  UNL1        0.0000
     13 C          12.1902   -3.1723   -0.0977 C.ar    1  UNL1        0.0000
     14 C          13.3191   -3.2252   -0.9135 C.ar    1  UNL1        0.0000
     15 C          14.1932   -2.1585   -0.9916 C.ar    1  UNL1        0.0000
     16 C          13.9413   -1.0025   -0.2643 C.ar    1  UNL1        0.0000
     17 C          11.2716   -4.3475    0.0101 C.3     1  UNL1        0.0000
     18 N          12.5341    1.2530   -1.5125 N.3     1  UNL1        0.0000
     19 C          11.9741    0.2870   -1.8186 C.3     1  UNL1        0.0000
     20 C          11.1310   -0.7656   -2.2508 C.3     1  UNL1        0.0000
     21 H          12.7478    0.5776   -4.5166 H       1  UNL1        0.0000
     22 H          12.8962   -1.8030   -5.1685 H       1  UNL1        0.0000
     23 H          16.9081   -1.9339   -3.7221 H       1  UNL1        0.0000
     24 H          16.7407    0.4214   -3.0286 H       1  UNL1        0.0000
     25 H          14.0402   -3.9180   -5.0461 H       1  UNL1        0.0000
     26 H          15.5675   -4.0530   -4.1563 H       1  UNL1        0.0000
     27 H          15.5680   -3.5360   -5.8362 H       1  UNL1        0.0000
     28 H          12.6380   -0.0452    1.1403 H       1  UNL1        0.0000
     29 H          11.1013   -1.9583    1.2907 H       1  UNL1        0.0000
     30 H          13.5238   -4.1211   -1.4809 H       1  UNL1        0.0000
     31 H          15.0766   -2.2133   -1.6067 H       1  UNL1        0.0000
     32 H          11.2034   -4.8800   -0.9358 H       1  UNL1        0.0000
     33 H          10.2758   -4.0423    0.3221 H       1  UNL1        0.0000
     34 H          11.6558   -5.0451    0.7543 H       1  UNL1        0.0000
     35 H          10.2660   -0.8436   -1.5906 H       1  UNL1        0.0000
     36 H          11.6797   -1.7104   -2.2290 H       1  UNL1        0.0000
     37 H          10.7946   -0.5688   -3.2693 H       1  UNL1        0.0000
@<TRIPOS>BOND
     1    27    10    1
     2    22     5    1
     3    25    10    1
     4    10     6    1
     5    10    26    1
     6     5     6   ar
     7     5     4   ar
     8    21     4    1
     9     6     7   ar
    10     4     9   ar
    11     7    23    1
    12     7     8   ar
    13     9     8   ar
    14     9     1    1
    15     8    24    1
    16    37    20    1
    17     1     3    1
    18    20    36    1
    19    20    19    1
    20    20    35    1
    21    19    18    1
    22    31    15    1
    23    18     3    1
    24    30    14    1
    25     3     2    1
    26    15    14   ar
    27    15    16   ar
    28    32    17    1
    29    14    13   ar
    30     2    16    1
    31    16    11   ar
    32    13    17    1
    33    13    12   ar
    34    17    33    1
    35    17    34    1
    36    11    12   ar
    37    11    28    1
    38    12    29    1
