@<TRIPOS>MOLECULE
1
 32 32 0 0 0
SMALL
GASTEIGER

@<TRIPOS>ATOM
      1 SI          2.8868    5.7338   13.5469 Si      1  UNL1        0.0000
      2 S           3.1313    2.8652   14.1206 S.3     1  UNL1        0.0000
      3 S           5.4073    4.7219   13.1633 S.3     1  UNL1        0.0000
      4 S           2.0336    6.1282   15.5120 S.3     1  UNL1        0.0000
      5 O           2.5117    4.0397   13.3849 O.3     1  UNL1        0.0000
      6 O           4.3764    3.1362   14.7622 O.3     1  UNL1        0.0000
      7 O           2.1222    2.2446   14.9054 O.3     1  UNL1        0.0000
      8 O           4.5062    5.4881   14.0942 O.3     1  UNL1        0.0000
      9 O           6.1504    5.6694   12.3930 O.3     1  UNL1        0.0000
     10 O           4.7643    3.7103   12.3898 O.3     1  UNL1        0.0000
     11 F           2.7470    0.4829   13.1115 F       1  UNL1        0.0000
     12 F           4.6955    1.2109   12.6426 F       1  UNL1        0.0000
     13 F           2.9625    1.9438   11.5741 F       1  UNL1        0.0000
     14 F           6.7837    2.6400   14.1863 F       1  UNL1        0.0000
     15 F           6.5766    4.3029   15.5586 F       1  UNL1        0.0000
     16 F           7.8945    4.4376   13.8891 F       1  UNL1        0.0000
     17 C           3.4301    1.5811   12.7642 C.3     1  UNL1        0.0000
     18 C           6.7066    3.9557   14.2889 C.3     1  UNL1        0.0000
     19 C           2.8119    4.9867   16.6520 C.ar    1  UNL1        0.0000
     20 C           4.1134    5.2021   17.0667 C.ar    1  UNL1        0.0000
     21 C           4.7009    4.3075   17.9401 C.ar    1  UNL1        0.0000
     22 C           3.9999    3.2050   18.4119 C.ar    1  UNL1        0.0000
     23 C           2.6820    3.0302   18.0104 C.ar    1  UNL1        0.0000
     24 C           2.0819    3.9164   17.1363 C.ar    1  UNL1        0.0000
     25 C           4.6647    2.2154   19.3201 C.3     1  UNL1        0.0000
     26 H           4.6675    6.0516   16.6989 H       1  UNL1        0.0000
     27 H           5.7238    4.4649   18.2490 H       1  UNL1        0.0000
     28 H           2.1181    2.1834   18.3722 H       1  UNL1        0.0000
     29 H           1.0612    3.7736   16.8219 H       1  UNL1        0.0000
     30 H           3.9299    1.6705   19.9078 H       1  UNL1        0.0000
     31 H           5.3611    2.7115   19.9928 H       1  UNL1        0.0000
     32 H           5.2264    1.4948   18.7256 H       1  UNL1        0.0000
@<TRIPOS>BOND
     1    13    17    1
     2    10     3    1
     3     9     3    1
     4    12    17    1
     5    17    11    1
     6    17     2    1
     7     3     8    1
     8     3    18    1
     9     5     1    1
    10     5     2    1
    11     1     8    1
    12     1     4    1
    13    16    18    1
    14     2     6    1
    15     2     7    1
    16    14    18    1
    17    18    15    1
    18     4    19    1
    19    19    20   ar
    20    19    24   ar
    21    26    20    1
    22    29    24    1
    23    20    21   ar
    24    24    23   ar
    25    21    27    1
    26    21    22   ar
    27    23    28    1
    28    23    22   ar
    29    22    25    1
    30    32    25    1
    31    25    30    1
    32    25    31    1
