@<TRIPOS>MOLECULE
2
 62 62 0 0 0
SMALL
GASTEIGER

@<TRIPOS>ATOM
      1 SI          2.7181    8.9462    2.1686 Si      1  UNL1        0.0000
      2 SI          8.1731    9.6778    5.3396 Si      1  UNL1        0.0000
      3 SI          9.0327   11.3668    3.8320 Si      1  UNL1        0.0000
      4 SI          9.6555    7.7680    5.2395 Si      1  UNL1        0.0000
      5 SI          8.6118   10.7153    7.4884 Si      1  UNL1        0.0000
      6 C           4.7766    7.1818    3.3682 C.2     1  UNL1        0.0000
      7 C           6.1730    7.0715    3.3839 C.2     1  UNL1        0.0000
      8 C           6.7099    8.2335    2.7707 C.3     1  UNL1        0.0000
      9 C           5.6319    9.0526    2.3914 C.3     1  UNL1        0.0000
     10 C           4.4166    8.4286    2.7840 C.3     1  UNL1        0.0000
     11 C           2.7418   10.8145    1.7652 C.3     1  UNL1        0.0000
     12 C           2.3442    7.9820    0.5574 C.3     1  UNL1        0.0000
     13 C           1.3482    8.4851    3.4255 C.3     1  UNL1        0.0000
     14 C           8.3255   11.3363    2.0491 C.3     1  UNL1        0.0000
     15 C          10.9412   11.2890    3.6372 C.3     1  UNL1        0.0000
     16 C           8.6013   13.1269    4.4497 C.3     1  UNL1        0.0000
     17 C          10.1211    7.1613    3.4759 C.3     1  UNL1        0.0000
     18 C          11.3306    8.0002    6.1383 C.3     1  UNL1        0.0000
     19 C           8.8362    6.2507    6.0933 C.3     1  UNL1        0.0000
     20 C           8.4973    9.5412    9.0098 C.3     1  UNL1        0.0000
     21 C          10.3594   11.4920    7.6579 C.3     1  UNL1        0.0000
     22 C           7.3588   12.1468    7.7719 C.3     1  UNL1        0.0000
     23 H           4.0786    6.4010    3.6435 H       1  UNL1        0.0000
     24 H           6.7404    6.1964    3.6726 H       1  UNL1        0.0000
     25 H           7.7452    8.3765    2.4966 H       1  UNL1        0.0000
     26 H           5.6978    9.9564    1.8007 H       1  UNL1        0.0000
     27 H           1.7530   11.2529    1.8541 H       1  UNL1        0.0000
     28 H           3.4103   11.3691    2.4187 H       1  UNL1        0.0000
     29 H           3.0772   10.9787    0.7456 H       1  UNL1        0.0000
     30 H           2.3090    6.9111    0.7321 H       1  UNL1        0.0000
     31 H           1.3862    8.2785    0.1423 H       1  UNL1        0.0000
     32 H           3.1016    8.1631   -0.1990 H       1  UNL1        0.0000
     33 H           1.2885    7.4080    3.5576 H       1  UNL1        0.0000
     34 H           1.4990    8.9401    4.3995 H       1  UNL1        0.0000
     35 H           0.3809    8.8134    3.0578 H       1  UNL1        0.0000
     36 H           8.7831   12.1060    1.4326 H       1  UNL1        0.0000
     37 H           8.4813   10.3881    1.5443 H       1  UNL1        0.0000
     38 H           7.2585   11.5363    2.0737 H       1  UNL1        0.0000
     39 H          11.3206   12.1060    3.0305 H       1  UNL1        0.0000
     40 H          11.4321   11.3437    4.6027 H       1  UNL1        0.0000
     41 H          11.2540   10.3620    3.1679 H       1  UNL1        0.0000
     42 H           8.9003   13.8907    3.7364 H       1  UNL1        0.0000
     43 H           7.5297   13.2192    4.5949 H       1  UNL1        0.0000
     44 H           9.0804   13.3571    5.3950 H       1  UNL1        0.0000
     45 H          10.9640    6.4757    3.5018 H       1  UNL1        0.0000
     46 H           9.3002    6.6420    2.9913 H       1  UNL1        0.0000
     47 H          10.4053    7.9933    2.8388 H       1  UNL1        0.0000
     48 H          11.9472    7.1062    6.0954 H       1  UNL1        0.0000
     49 H          11.8987    8.8101    5.6931 H       1  UNL1        0.0000
     50 H          11.1816    8.2431    7.1853 H       1  UNL1        0.0000
     51 H           9.3514    5.3243    5.8549 H       1  UNL1        0.0000
     52 H           8.8544    6.3557    7.1738 H       1  UNL1        0.0000
     53 H           7.7968    6.1332    5.7937 H       1  UNL1        0.0000
     54 H           8.8832   10.0230    9.9042 H       1  UNL1        0.0000
     55 H           7.4802    9.2313    9.2259 H       1  UNL1        0.0000
     56 H           9.0871    8.6432    8.8511 H       1  UNL1        0.0000
     57 H          10.4809   12.0057    8.6083 H       1  UNL1        0.0000
     58 H          11.1334   10.7345    7.5962 H       1  UNL1        0.0000
     59 H          10.5496   12.2139    6.8708 H       1  UNL1        0.0000
     60 H           6.8500   12.0754    8.7294 H       1  UNL1        0.0000
     61 H           7.8538   13.1124    7.7456 H       1  UNL1        0.0000
     62 H           6.6006   12.1570    6.9916 H       1  UNL1        0.0000
@<TRIPOS>BOND
     1    32    12    1
     2    31    12    1
     3    12    30    1
     4    12     1    1
     5    29    11    1
     6    36    14    1
     7    37    14    1
     8    11    27    1
     9    11     1    1
    10    11    28    1
    11    26     9    1
    12    14    38    1
    13    14     3    1
    14     1    10    1
    15     1    13    1
    16     9     8    1
    17     9    10    1
    18    25     8    1
    19     8     7    1
    20    10     6    1
    21    47    17    1
    22    46    17    1
    23    39    15    1
    24    35    13    1
    25    41    15    1
    26     6     7    2
    27     6    23    1
    28     7    24    1
    29    13    33    1
    30    13    34    1
    31    17    45    1
    32    17     4    1
    33    15     3    1
    34    15    40    1
    35    42    16    1
    36     3    16    1
    37     3     2    1
    38    16    43    1
    39    16    44    1
    40     4     2    1
    41     4    19    1
    42     4    18    1
    43     2     5    1
    44    49    18    1
    45    53    19    1
    46    51    19    1
    47    19    52    1
    48    48    18    1
    49    18    50    1
    50    59    21    1
    51    62    22    1
    52     5    21    1
    53     5    22    1
    54     5    20    1
    55    58    21    1
    56    21    57    1
    57    61    22    1
    58    22    60    1
    59    56    20    1
    60    20    55    1
    61    20    54    1
    62     2     8    0
