@<TRIPOS>MOLECULE
3
 9 9 0 0 0
SMALL
GASTEIGER

@<TRIPOS>ATOM
      1 C          -0.1932    1.6250    6.2507 C.3     1  UNL1        0.0000
      2 O          -1.0133    1.0970    6.8711 O.3     1  UNL1        0.0000
      3 SI          0.5032    4.3271    6.4459 Si      1  UNL1        0.0000
      4 SI         -1.6720    5.1957    6.0766 Si      1  UNL1        0.0000
      5 CL          0.5392    4.0775    8.5035 Cl      1  UNL1        0.0000
      6 CL          1.7026    5.9845    6.1127 Cl      1  UNL1        0.0000
      7 CL         -2.3172    6.8454    7.0559 Cl      1  UNL1        0.0000
      8 CL         -3.0300    3.7231    6.4641 Cl      1  UNL1        0.0000
      9 CL         -1.8853    5.5799    4.0846 Cl      1  UNL1        0.0000
@<TRIPOS>BOND
     1     9     4    1
     2     4     3    1
     3     4     8    1
     4     4     7    1
     5     6     3    1
     6     1     2    1
     7     3     5    1
     8     3     1    0
     9     4     6    0
