@<TRIPOS>MOLECULE
3
 4 3 0 0 0
SMALL
GASTEIGER

@<TRIPOS>ATOM
      1 CL          6.1365    4.4204    0.1514 Cl      1  UNL1        0.0000
      2 CL          7.5637    2.7788   -2.2445 Cl      1  UNL1        0.0000
      3 SI          7.2551    2.7788   -0.2597 Si      1  UNL1        0.0000
      4 CL          6.1366    1.1371    0.1513 Cl      1  UNL1        0.0000
@<TRIPOS>BOND
     1     2     3    1
     2     3     4    1
     3     3     1    1
