@<TRIPOS>MOLECULE
3
 4 3 0 0 0
SMALL
GASTEIGER

@<TRIPOS>ATOM
      1 CL         11.8742    1.1372    0.4937 Cl      1  UNL1        0.0000
      2 CL         10.7424    2.7787   -2.0548 Cl      1  UNL1        0.0000
      3 SI         10.8124    2.7788   -0.0474 Si      1  UNL1        0.0000
      4 CL         11.8742    4.4204    0.4936 Cl      1  UNL1        0.0000
@<TRIPOS>BOND
     1     2     3    1
     2     3     4    1
     3     3     1    1
