@<TRIPOS>MOLECULE
4
 4 3 0 0 0
SMALL
GASTEIGER

@<TRIPOS>ATOM
      1 CL          5.5271    3.8598   -0.4243 Cl      1  UNL1        0.0000
      2 CL          5.8932    0.7080    0.3367 Cl      1  UNL1        0.0000
      3 CL          8.2555    2.8080    0.9083 Cl      1  UNL1        0.0000
      4 SI          6.2576    2.5964    0.9829 Si      1  UNL1        0.0000
@<TRIPOS>BOND
     1     1     4    1
     2     2     4    1
     3     3     4    1
