@<TRIPOS>MOLECULE
4
 4 3 0 0 0
SMALL
GASTEIGER

@<TRIPOS>ATOM
      1 CL          6.7254    2.1879    5.8736 Cl      1  UNL1        0.0000
      2 CL          8.5679    3.8605    3.8411 Cl      1  UNL1        0.0000
      3 CL          6.0274    5.2991    5.1752 Cl      1  UNL1        0.0000
      4 SI          6.6543    3.5458    4.3702 Si      1  UNL1        0.0000
@<TRIPOS>BOND
     1     2     4    1
     2     4     3    1
     3     4     1    1
