@<TRIPOS>MOLECULE
1
 33 33 0 0 0
SMALL
GASTEIGER

@<TRIPOS>ATOM
      1 SI          5.3048    0.5215    3.8998 Si      1  UNL1        0.0000
      2 N           8.1217    2.3824    2.8420 N.4     1  UNL1        0.0000
      3 O           6.9039    0.1310    3.5048 O.3     1  UNL1        0.0000
      4 C           7.3002   -1.0962    2.9452 C.3     1  UNL1        0.0000
      5 C           4.7157   -0.7744    5.1789 C.3     1  UNL1        0.0000
      6 C           5.6316    2.2039    4.7627 C.ar    1  UNL1        0.0000
      7 C           6.2618    3.3121    4.1864 C.ar    1  UNL1        0.0000
      8 C           6.3216    4.5239    4.8658 C.ar    1  UNL1        0.0000
      9 C           5.7591    4.6638    6.1213 C.ar    1  UNL1        0.0000
     10 C           5.1397    3.5749    6.7084 C.ar    1  UNL1        0.0000
     11 C           5.0778    2.3716    6.0294 C.ar    1  UNL1        0.0000
     12 C           6.8962    3.2242    2.8236 C.3     1  UNL1        0.0000
     13 C           8.7163    2.2661    1.5046 C.3     1  UNL1        0.0000
     14 C           9.1053    2.8671    3.8178 C.3     1  UNL1        0.0000
     15 H           7.7737    1.4285    3.1468 H       1  UNL1        0.0000
     16 H           8.3888   -1.1399    2.9454 H       1  UNL1        0.0000
     17 H           6.9274   -1.1820    1.9228 H       1  UNL1        0.0000
     18 H           6.9119   -1.9260    3.5311 H       1  UNL1        0.0000
     19 H           3.7348   -0.5354    5.5728 H       1  UNL1        0.0000
     20 H           5.4048   -0.8563    6.0152 H       1  UNL1        0.0000
     21 H           4.6390   -1.7552    4.7193 H       1  UNL1        0.0000
     22 H           6.8054    5.3726    4.4039 H       1  UNL1        0.0000
     23 H           5.8065    5.6113    6.6341 H       1  UNL1        0.0000
     24 H           4.6999    3.6647    7.6894 H       1  UNL1        0.0000
     25 H           4.5871    1.5356    6.4996 H       1  UNL1        0.0000
     26 H           7.1686    4.2213    2.4689 H       1  UNL1        0.0000
     27 H           6.1908    2.7706    2.1222 H       1  UNL1        0.0000
     28 H           7.9929    1.8528    0.8054 H       1  UNL1        0.0000
     29 H           9.5829    1.6092    1.5380 H       1  UNL1        0.0000
     30 H           9.0331    3.2460    1.1489 H       1  UNL1        0.0000
     31 H           8.6538    2.9099    4.8065 H       1  UNL1        0.0000
     32 H           9.4481    3.8635    3.5402 H       1  UNL1        0.0000
     33 H           9.9606    2.1959    3.8487 H       1  UNL1        0.0000
@<TRIPOS>BOND
     1    28    13    1
     2    30    13    1
     3    13    29    1
     4    13     2    1
     5    17     4    1
     6    27    12    1
     7    26    12    1
     8    12     2    1
     9    12     7    1
    10     2    15    1
    11     2    14    1
    12     4    16    1
    13     4     3    1
    14     4    18    1
    15     3     1    1
    16    32    14    1
    17    14    33    1
    18    14    31    1
    19     1     6    1
    20     1     5    1
    21     7     6   ar
    22     7     8   ar
    23    22     8    1
    24    21     5    1
    25     6    11   ar
    26     8     9   ar
    27     5    19    1
    28     5    20    1
    29    11    25    1
    30    11    10   ar
    31     9    23    1
    32     9    10   ar
    33    10    24    1
