@<TRIPOS>MOLECULE
1
 27 28 0 0 0
SMALL
GASTEIGER

@<TRIPOS>ATOM
      1 SI          2.5516    2.3520    3.8510 Si      1  UNL1        0.0000
      2 N           0.5808    2.5378    3.6036 N.4     1  UNL1        0.0000
      3 C           2.7340    0.5459    4.4793 C.3     1  UNL1        0.0000
      4 C           2.3162    3.4624    5.3697 C.ar    1  UNL1        0.0000
      5 C           0.9826    3.5104    5.7781 C.ar    1  UNL1        0.0000
      6 C           0.5979    4.2712    6.8661 C.ar    1  UNL1        0.0000
      7 C           1.5567    4.9948    7.5587 C.ar    1  UNL1        0.0000
      8 C           2.8837    4.9580    7.1609 C.ar    1  UNL1        0.0000
      9 C           3.2642    4.1963    6.0686 C.ar    1  UNL1        0.0000
     10 C           0.0399    2.6719    4.9643 C.3     1  UNL1        0.0000
     11 C           0.3218    3.7732    2.8671 C.3     1  UNL1        0.0000
     12 C          -0.0338    1.4180    2.9051 C.3     1  UNL1        0.0000
     13 H           2.5332   -0.2003    3.7176 H       1  UNL1        0.0000
     14 H           2.1037    0.3350    5.3394 H       1  UNL1        0.0000
     15 H           3.7610    0.4002    4.7994 H       1  UNL1        0.0000
     16 H          -0.4364    4.3002    7.1745 H       1  UNL1        0.0000
     17 H           1.2652    5.5911    8.4089 H       1  UNL1        0.0000
     18 H           3.6229    5.5260    7.7033 H       1  UNL1        0.0000
     19 H           4.2972    4.1696    5.7589 H       1  UNL1        0.0000
     20 H          -0.0323    1.6760    5.4098 H       1  UNL1        0.0000
     21 H          -0.9654    3.1024    4.9398 H       1  UNL1        0.0000
     22 H          -0.7499    3.9197    2.7226 H       1  UNL1        0.0000
     23 H           0.7187    4.6195    3.4223 H       1  UNL1        0.0000
     24 H           0.8110    3.7344    1.8964 H       1  UNL1        0.0000
     25 H           0.1923    0.4883    3.4202 H       1  UNL1        0.0000
     26 H           0.3525    1.3663    1.8905 H       1  UNL1        0.0000
     27 H          -1.1183    1.5342    2.8571 H       1  UNL1        0.0000
@<TRIPOS>BOND
     1    26    12    1
     2    24    11    1
     3    22    11    1
     4    27    12    1
     5    11    23    1
     6    11     2    1
     7    12    25    1
     8    12     2    1
     9     2     1    1
    10     2    10    1
    11    13     3    1
    12     1     3    1
    13     1     4    1
    14     3    15    1
    15     3    14    1
    16    21    10    1
    17    10    20    1
    18    10     5    1
    19     4     5   ar
    20     4     9   ar
    21    19     9    1
    22     5     6   ar
    23     9     8   ar
    24     6    16    1
    25     6     7   ar
    26     8     7   ar
    27     8    18    1
    28     7    17    1
