@<TRIPOS>MOLECULE
1
 25 26 0 0 0
SMALL
GASTEIGER

@<TRIPOS>ATOM
      1 SI          4.1987    2.6279    2.3558 Si      1  UNL1        0.0000
      2 O           4.2901    2.4289    0.7129 O.3     1  UNL1        0.0000
      3 C           5.0922    1.1375    3.1580 C.ar    1  UNL1        0.0000
      4 C           4.9149    0.8162    4.4998 C.ar    1  UNL1        0.0000
      5 C           5.5679   -0.2582    5.0776 C.ar    1  UNL1        0.0000
      6 C           6.4174   -1.0445    4.3178 C.ar    1  UNL1        0.0000
      7 C           6.6076   -0.7432    2.9803 C.ar    1  UNL1        0.0000
      8 C           5.9524    0.3359    2.4145 C.ar    1  UNL1        0.0000
      9 C           5.3182    4.1135    2.8129 C.ar    1  UNL1        0.0000
     10 C           5.8795    4.2457    4.0791 C.ar    1  UNL1        0.0000
     11 C           6.6155    5.3639    4.4268 C.ar    1  UNL1        0.0000
     12 C           6.8093    6.3812    3.5076 C.ar    1  UNL1        0.0000
     13 C           6.2669    6.2659    2.2392 C.ar    1  UNL1        0.0000
     14 C           5.5314    5.1441    1.9017 C.ar    1  UNL1        0.0000
     15 H           5.1419    2.5155    0.2874 H       1  UNL1        0.0000
     16 H           4.2492    1.4155    5.1021 H       1  UNL1        0.0000
     17 H           5.4122   -0.4863    6.1231 H       1  UNL1        0.0000
     18 H           6.9263   -1.8866    4.7648 H       1  UNL1        0.0000
     19 H           7.2681   -1.3517    2.3780 H       1  UNL1        0.0000
     20 H           6.1055    0.5545    1.3673 H       1  UNL1        0.0000
     21 H           5.7412    3.4558    4.8016 H       1  UNL1        0.0000
     22 H           7.0410    5.4441    5.4174 H       1  UNL1        0.0000
     23 H           7.3829    7.2569    3.7769 H       1  UNL1        0.0000
     24 H           6.4173    7.0530    1.5131 H       1  UNL1        0.0000
     25 H           5.1074    5.0674    0.9109 H       1  UNL1        0.0000
@<TRIPOS>BOND
     1    15     2    1
     2     2     1    1
     3    25    14    1
     4    20     8    1
     5    24    13    1
     6    14    13   ar
     7    14     9   ar
     8    13    12   ar
     9     1     9    1
    10     1     3    1
    11    19     7    1
    12     8     7   ar
    13     8     3   ar
    14     9    10   ar
    15     7     6   ar
    16     3     4   ar
    17    12    23    1
    18    12    11   ar
    19    10    11   ar
    20    10    21    1
    21     6    18    1
    22     6     5   ar
    23    11    22    1
    24     4     5   ar
    25     4    16    1
    26     5    17    1
