@<TRIPOS>MOLECULE
2
 17 17 0 0 0
SMALL
GASTEIGER

@<TRIPOS>ATOM
      1 CL          1.5816    2.4240    5.4254 Cl      1  UNL1        0.0000
      2 SI          1.7709    1.4555    3.5909 Si      1  UNL1        0.0000
      3 C           0.7833   -0.1669    3.9007 C.3     1  UNL1        0.0000
      4 C           0.6503    2.4299    2.3959 C.ar    1  UNL1        0.0000
      5 C           0.5967    2.0398    1.0622 C.ar    1  UNL1        0.0000
      6 C          -0.1888    2.7167    0.1486 C.ar    1  UNL1        0.0000
      7 C          -0.9359    3.8106    0.5554 C.ar    1  UNL1        0.0000
      8 C          -0.8928    4.2137    1.8784 C.ar    1  UNL1        0.0000
      9 C          -0.1069    3.5260    2.7869 C.ar    1  UNL1        0.0000
     10 H           1.1866    1.1937    0.7419 H       1  UNL1        0.0000
     11 H          -0.2182    2.3960   -0.8834 H       1  UNL1        0.0000
     12 H          -1.5480    4.3456   -0.1566 H       1  UNL1        0.0000
     13 H          -1.4731    5.0657    2.2035 H       1  UNL1        0.0000
     14 H          -0.0815    3.8472    3.8180 H       1  UNL1        0.0000
     15 H          -0.2833    0.0379    3.9028 H       1  UNL1        0.0000
     16 H           0.9807   -0.8933    3.1213 H       1  UNL1        0.0000
     17 H           1.0381   -0.6203    4.8519 H       1  UNL1        0.0000
@<TRIPOS>BOND
     1    11     6    1
     2    12     7    1
     3     6     7   ar
     4     6     5   ar
     5     7     8   ar
     6    10     5    1
     7     5     4   ar
     8     8    13    1
     9     8     9   ar
    10     4     9   ar
    11     4     2    1
    12     9    14    1
    13    16     3    1
    14     2     3    1
    15     2     1    1
    16     3    15    1
    17     3    17    1
