@<TRIPOS>MOLECULE
1
 56 57 0 0 0
SMALL
GASTEIGER

@<TRIPOS>ATOM
      1 SI         -1.7425   -1.1016    7.4598 Si      1  UNL1        0.0000
      2 N          -3.3301   -2.0530    7.4853 N.3     1  UNL1        0.0000
      3 C          -3.0750   -2.6098    6.3032 C.3     1  UNL1        0.0000
      4 N          -1.8804   -2.1330    5.9448 N.pl3   1  UNL1        0.0000
      5 C          -3.0693   -4.4072    4.6885 C.3     1  UNL1        0.0000
      6 H          -3.0593   -4.0161    3.6665 H       1  UNL1        0.0000
      7 H          -3.5743   -5.3748    4.6913 H       1  UNL1        0.0000
      8 H          -2.0433   -4.5469    5.0178 H       1  UNL1        0.0000
      9 N          -3.7653   -3.5362    5.6104 N.3     1  UNL1        0.0000
     10 C          -5.2027   -3.5127    5.4596 C.3     1  UNL1        0.0000
     11 H          -5.6779   -4.3438    5.9893 H       1  UNL1        0.0000
     12 H          -5.4507   -3.6001    4.3997 H       1  UNL1        0.0000
     13 H          -5.5985   -2.5699    5.8232 H       1  UNL1        0.0000
     14 C          -4.2266   -2.3980    8.5753 C.3     1  UNL1        0.0000
     15 C          -4.2195   -3.9108    8.8222 C.3     1  UNL1        0.0000
     16 H          -4.5724   -4.4586    7.9541 H       1  UNL1        0.0000
     17 H          -4.8626   -4.1479    9.6658 H       1  UNL1        0.0000
     18 H          -3.2086   -4.2418    9.0495 H       1  UNL1        0.0000
     19 C          -5.6578   -1.8826    8.3443 C.3     1  UNL1        0.0000
     20 H          -5.6304   -0.9300    7.8208 H       1  UNL1        0.0000
     21 H          -6.1458   -1.7241    9.3025 H       1  UNL1        0.0000
     22 H          -6.2628   -2.5875    7.7826 H       1  UNL1        0.0000
     23 C          -3.6787   -1.6940    9.8204 C.3     1  UNL1        0.0000
     24 H          -2.6636   -2.0153   10.0313 H       1  UNL1        0.0000
     25 H          -4.3000   -1.9268   10.6814 H       1  UNL1        0.0000
     26 H          -3.6738   -0.6178    9.6698 H       1  UNL1        0.0000
     27 C          -1.3022   -2.0481    4.6647 C.ar    1  UNL1        0.0000
     28 C          -0.0322   -2.6110    4.4802 C.ar    1  UNL1        0.0000
     29 C           0.5968   -2.4654    3.2535 C.ar    1  UNL1        0.0000
     30 H           1.5811   -2.8807    3.1041 H       1  UNL1        0.0000
     31 C          -0.0189   -1.7886    2.2189 C.ar    1  UNL1        0.0000
     32 H           0.4801   -1.6818    1.2673 H       1  UNL1        0.0000
     33 C          -1.2697   -1.2376    2.4096 C.ar    1  UNL1        0.0000
     34 H          -1.7375   -0.6991    1.5997 H       1  UNL1        0.0000
     35 C          -1.9288   -1.3436    3.6278 C.ar    1  UNL1        0.0000
     36 C          -3.2706   -0.6674    3.7909 C.3     1  UNL1        0.0000
     37 H          -3.6506   -0.8643    4.7985 H       1  UNL1        0.0000
     38 C          -4.2903   -1.1924    2.7749 C.3     1  UNL1        0.0000
     39 H          -5.2790   -0.7993    3.0021 H       1  UNL1        0.0000
     40 H          -4.3381   -2.2792    2.7860 H       1  UNL1        0.0000
     41 H          -4.0257   -0.8793    1.7680 H       1  UNL1        0.0000
     42 C          -3.1261    0.8488    3.6388 C.3     1  UNL1        0.0000
     43 H          -2.7867    1.1097    2.6395 H       1  UNL1        0.0000
     44 H          -2.4082    1.2355    4.3602 H       1  UNL1        0.0000
     45 H          -4.0841    1.3329    3.8154 H       1  UNL1        0.0000
     46 C           0.6565   -3.3499    5.6034 C.3     1  UNL1        0.0000
     47 H          -0.0781   -3.5358    6.3928 H       1  UNL1        0.0000
     48 C           1.2141   -4.7011    5.1488 C.3     1  UNL1        0.0000
     49 H           0.4490   -5.2862    4.6414 H       1  UNL1        0.0000
     50 H           1.5644   -5.2645    6.0109 H       1  UNL1        0.0000
     51 H           2.0524   -4.5736    4.4694 H       1  UNL1        0.0000
     52 C           1.7691   -2.4759    6.1859 C.3     1  UNL1        0.0000
     53 H           2.5195   -2.2612    5.4287 H       1  UNL1        0.0000
     54 H           2.2511   -2.9822    7.0193 H       1  UNL1        0.0000
     55 H           1.3603   -1.5325    6.5413 H       1  UNL1        0.0000
     56 H          -0.9214   -2.1000    8.2175 H       1  UNL1        0.0000
@<TRIPOS>BOND
     1    32    31    1
     2    34    33    1
     3    41    38    1
     4    31    33   ar
     5    31    29   ar
     6    33    35   ar
     7    43    42    1
     8    38    40    1
     9    38    39    1
    10    38    36    1
    11    30    29    1
    12    29    28   ar
    13    35    36    1
    14    35    27   ar
    15    42    36    1
    16    42    45    1
    17    42    44    1
    18     6     5    1
    19    36    37    1
    20    12    10    1
    21    51    48    1
    22    28    27   ar
    23    28    46    1
    24    49    48    1
    25    27     4    1
    26     5     7    1
    27     5     8    1
    28     5     9    1
    29    48    46    1
    30    48    50    1
    31    53    52    1
    32    10     9    1
    33    10    13    1
    34    10    11    1
    35    46    52    1
    36    46    47    1
    37     9     3    1
    38     4     3    1
    39     4     1    1
    40    52    55    1
    41    52    54    1
    42     3     2    1
    43     1     2    1
    44     1    56    1
    45     2    14    1
    46    22    19    1
    47    20    19    1
    48    16    15    1
    49    19    14    1
    50    19    21    1
    51    14    15    1
    52    14    23    1
    53    15    18    1
    54    15    17    1
    55    26    23    1
    56    23    24    1
    57    23    25    1
