@<TRIPOS>MOLECULE
3
 28 28 0 0 0
SMALL
GASTEIGER

@<TRIPOS>ATOM
      1 CL          4.9858    1.6574    1.1234 Cl      1  UNL1        0.0000
      2 CL          5.3680    4.2115    2.9678 Cl      1  UNL1        0.0000
      3 SI          3.7524    3.0387    2.1973 Si      1  UNL1        0.0000
      4 C           3.3035    1.8839    3.7629 C.3     1  UNL1        0.0000
      5 C           2.2275    0.9550    3.2929 C.2     1  UNL1        0.0000
      6 C           1.0474    1.3439    3.8260 C.2     1  UNL1        0.0000
      7 C           1.2763    2.4483    4.7400 C.2     1  UNL1        0.0000
      8 C           2.5959    2.7418    4.7608 C.2     1  UNL1        0.0000
      9 C           4.5481    1.2002    4.3096 C.3     1  UNL1        0.0000
     10 C           2.5087   -0.2442    2.4528 C.3     1  UNL1        0.0000
     11 C          -0.3099    0.7523    3.6261 C.3     1  UNL1        0.0000
     12 C           0.1737    3.0572    5.5438 C.3     1  UNL1        0.0000
     13 C           3.3154    3.6850    5.6643 C.3     1  UNL1        0.0000
     14 H           4.2757    0.5950    5.1743 H       1  UNL1        0.0000
     15 H           4.9985    0.5533    3.5619 H       1  UNL1        0.0000
     16 H           5.2881    1.9339    4.6193 H       1  UNL1        0.0000
     17 H           1.5894   -0.7409    2.1496 H       1  UNL1        0.0000
     18 H           3.0813    0.0116    1.5643 H       1  UNL1        0.0000
     19 H           3.0992   -0.9606    3.0260 H       1  UNL1        0.0000
     20 H          -0.2905   -0.0622    2.9067 H       1  UNL1        0.0000
     21 H          -0.6945    0.3652    4.5700 H       1  UNL1        0.0000
     22 H          -1.0109    1.5087    3.2708 H       1  UNL1        0.0000
     23 H           0.5287    3.8932    6.1415 H       1  UNL1        0.0000
     24 H          -0.6271    3.4144    4.8952 H       1  UNL1        0.0000
     25 H          -0.2548    2.3157    6.2189 H       1  UNL1        0.0000
     26 H           2.6227    4.3335    6.1982 H       1  UNL1        0.0000
     27 H           3.8816    3.1222    6.4087 H       1  UNL1        0.0000
     28 H           4.0225    4.3042    5.1168 H       1  UNL1        0.0000
@<TRIPOS>BOND
     1     1     3    1
     2    18    10    1
     3    17    10    1
     4     3     2    1
     5     3     4    1
     6    10    19    1
     7    10     5    1
     8    20    11    1
     9    22    11    1
    10     5     4    1
    11     5     6    2
    12    15     9    1
    13    11     6    1
    14    11    21    1
    15     4     9    1
    16     4     8    1
    17     6     7    1
    18     9    16    1
    19     9    14    1
    20     7     8    2
    21     7    12    1
    22     8    13    1
    23    24    12    1
    24    28    13    1
    25    12    23    1
    26    12    25    1
    27    13    26    1
    28    13    27    1
