@<TRIPOS>MOLECULE
1
 13 12 0 0 0
SMALL
GASTEIGER

@<TRIPOS>ATOM
      1 SI         -4.5300   14.2487   14.0480 Si      1  UNL1        0.0000
      2 C          -5.1111   15.9882   14.6291 C.3     1  UNL1        0.0000
      3 H          -6.1827   16.0085   14.8024 H       1  UNL1        0.0000
      4 H          -4.8822   16.7465   13.8884 H       1  UNL1        0.0000
      5 H          -4.6224   16.2747   15.5534 H       1  UNL1        0.0000
      6 C          -5.1872   13.0622   15.4140 C.3     1  UNL1        0.0000
      7 H          -4.5644   13.1236   16.2992 H       1  UNL1        0.0000
      8 H          -5.2047   12.0303   15.0889 H       1  UNL1        0.0000
      9 H          -6.1981   13.3317   15.7003 H       1  UNL1        0.0000
     10 C          -5.5507   13.9390   12.4459 C.3     1  UNL1        0.0000
     11 H          -6.5151   13.5025   12.6824 H       1  UNL1        0.0000
     12 H          -5.0477   13.2768   11.7528 H       1  UNL1        0.0000
     13 H          -5.7265   14.8742   11.9270 H       1  UNL1        0.0000
@<TRIPOS>BOND
     1    12    10    1
     2    13    10    1
     3    10    11    1
     4    10     1    1
     5     4     2    1
     6     1     2    1
     7     1     6    1
     8     2     3    1
     9     2     5    1
    10     8     6    1
    11     6     9    1
    12     6     7    1
