@<TRIPOS>MOLECULE
1
 31 32 0 0 0
SMALL
GASTEIGER

@<TRIPOS>ATOM
      1 SI          1.8467    0.1381    2.2508 Si      1  UNL1        0.0000
      2 O           0.4488   -0.2341    1.4319 O.3     1  UNL1        0.0000
      3 H           0.5093   -0.3997    0.4921 H       1  UNL1        0.0000
      4 C           2.7135   -1.5421    2.6413 C.ar    1  UNL1        0.0000
      5 C           3.1372   -1.7880    3.9440 C.ar    1  UNL1        0.0000
      6 C           3.7293   -2.9813    4.3125 C.ar    1  UNL1        0.0000
      7 C           3.9126   -3.9697    3.3616 C.ar    1  UNL1        0.0000
      8 C           3.5154   -3.7389    2.0575 C.ar    1  UNL1        0.0000
      9 C           2.9236   -2.5382    1.6832 C.ar    1  UNL1        0.0000
     10 C           2.5243   -2.3421    0.2511 C.3     1  UNL1        0.0000
     11 H           2.7947   -1.3455   -0.0906 H       1  UNL1        0.0000
     12 H           1.4473   -2.4670    0.1425 H       1  UNL1        0.0000
     13 H           3.0136   -3.0756   -0.3859 H       1  UNL1        0.0000
     14 C           2.9279    1.0726    0.9590 C.ar    1  UNL1        0.0000
     15 C           2.2862    1.6710   -0.1220 C.ar    1  UNL1        0.0000
     16 C           2.9798    2.3723   -1.0907 C.ar    1  UNL1        0.0000
     17 C           4.3539    2.4898   -0.9908 C.ar    1  UNL1        0.0000
     18 C           5.0085    1.9153    0.0838 C.ar    1  UNL1        0.0000
     19 C           4.3145    1.2160    1.0624 C.ar    1  UNL1        0.0000
     20 C           5.0652    0.6257    2.2143 C.3     1  UNL1        0.0000
     21 H           6.1007    0.9567    2.2099 H       1  UNL1        0.0000
     22 H           5.0480   -0.4614    2.1648 H       1  UNL1        0.0000
     23 H           4.6028    0.9220    3.1535 H       1  UNL1        0.0000
     24 H           3.0071   -1.0080    4.6857 H       1  UNL1        0.0000
     25 H           4.0484   -3.1399    5.3329 H       1  UNL1        0.0000
     26 H           4.3698   -4.9108    3.6312 H       1  UNL1        0.0000
     27 H           3.6719   -4.5060    1.3114 H       1  UNL1        0.0000
     28 H           1.2105    1.5983   -0.2021 H       1  UNL1        0.0000
     29 H           2.4508    2.8270   -1.9160 H       1  UNL1        0.0000
     30 H           4.9124    3.0323   -1.7398 H       1  UNL1        0.0000
     31 H           6.0818    2.0171    0.1676 H       1  UNL1        0.0000
@<TRIPOS>BOND
     1    29    16    1
     2    30    17    1
     3    16    17   ar
     4    16    15   ar
     5    17    18   ar
     6    13    10    1
     7    28    15    1
     8    15    14   ar
     9    11    10    1
    10    18    31    1
    11    18    19   ar
    12    12    10    1
    13    10     9    1
    14     3     2    1
    15    14    19   ar
    16    14     1    1
    17    19    20    1
    18    27     8    1
    19     2     1    1
    20     9     8   ar
    21     9     4   ar
    22     8     7   ar
    23    22    20    1
    24    21    20    1
    25    20    23    1
    26     1     4    1
    27     4     5   ar
    28     7    26    1
    29     7     6   ar
    30     5     6   ar
    31     5    24    1
    32     6    25    1
