@<TRIPOS>MOLECULE
7
 44 43 0 0 0
SMALL
GASTEIGER

@<TRIPOS>ATOM
      1 SI         11.3818    8.2805   11.7463 Si      1  UNL1        0.0000
      2 H          12.3883    7.9048   12.7484 H       1  UNL1        0.0000
      3 H          10.8025    9.5535   12.2073 H       1  UNL1        0.0000
      4 SI          8.4676    7.7696   10.7797 Si      1  UNL1        0.0000
      5 SI          9.7037    6.3553   13.3854 Si      1  UNL1        0.0000
      6 SI         10.6979    5.5164   10.4522 Si      1  UNL1        0.0000
      7 S          12.3925    8.6826    9.9348 S.3     1  UNL1        0.0000
      8 C          10.0280    6.9484   11.5760 C.3     1  UNL1        0.0000
      9 C           8.8779    8.8257    9.2386 C.3     1  UNL1        0.0000
     10 H           8.5750    8.3354    8.3199 H       1  UNL1        0.0000
     11 H           9.9423    9.0197    9.1644 H       1  UNL1        0.0000
     12 H           8.3728    9.7864    9.2760 H       1  UNL1        0.0000
     13 C           7.5867    8.9612   11.9892 C.3     1  UNL1        0.0000
     14 H           8.2519    9.7474   12.3293 H       1  UNL1        0.0000
     15 H           7.2017    8.4477   12.8626 H       1  UNL1        0.0000
     16 H           6.7444    9.4399   11.4981 H       1  UNL1        0.0000
     17 C           7.1430    6.4977   10.2537 C.3     1  UNL1        0.0000
     18 H           6.8042    5.8939   11.0863 H       1  UNL1        0.0000
     19 H           7.5104    5.8254    9.4872 H       1  UNL1        0.0000
     20 H           6.2750    7.0097    9.8490 H       1  UNL1        0.0000
     21 C           9.6846    7.8042   14.6331 C.3     1  UNL1        0.0000
     22 H           9.3188    7.4758   15.6018 H       1  UNL1        0.0000
     23 H           9.0563    8.6238   14.3094 H       1  UNL1        0.0000
     24 H          10.6844    8.1985   14.7786 H       1  UNL1        0.0000
     25 C           8.0525    5.4247   13.6036 C.3     1  UNL1        0.0000
     26 H           7.9573    4.6019   12.9062 H       1  UNL1        0.0000
     27 H           7.2012    6.0807   13.4627 H       1  UNL1        0.0000
     28 H           7.9829    5.0123   14.6055 H       1  UNL1        0.0000
     29 C          11.0825    5.2092   14.0465 C.3     1  UNL1        0.0000
     30 H          10.9194    4.9824   15.0965 H       1  UNL1        0.0000
     31 H          12.0557    5.6814   13.9661 H       1  UNL1        0.0000
     32 H          11.1289    4.2663   13.5143 H       1  UNL1        0.0000
     33 C           9.7592    3.8789   10.7410 C.3     1  UNL1        0.0000
     34 H           8.6939    3.9984   10.5872 H       1  UNL1        0.0000
     35 H           9.9064    3.4901   11.7411 H       1  UNL1        0.0000
     36 H          10.1050    3.1229   10.0435 H       1  UNL1        0.0000
     37 C          12.5536    5.1810   10.7501 C.3     1  UNL1        0.0000
     38 H          12.8930    4.3220   10.1785 H       1  UNL1        0.0000
     39 H          12.7816    4.9890   11.7916 H       1  UNL1        0.0000
     40 H          13.1468    6.0385   10.4375 H       1  UNL1        0.0000
     41 C          10.5298    5.8972    8.5891 C.3     1  UNL1        0.0000
     42 H          10.9980    5.1165    7.9965 H       1  UNL1        0.0000
     43 H          11.0155    6.8342    8.3433 H       1  UNL1        0.0000
     44 H           9.4949    5.9677    8.2751 H       1  UNL1        0.0000
@<TRIPOS>BOND
     1    42    41    1
     2    44    41    1
     3    10     9    1
     4    43    41    1
     5    41     6    1
     6    11     9    1
     7     9    12    1
     8     9     4    1
     9    19    17    1
    10    20    17    1
    11     7     1    1
    12    36    33    1
    13    38    37    1
    14    17     4    1
    15    17    18    1
    16    40    37    1
    17     6    33    1
    18     6    37    1
    19     6     8    1
    20    34    33    1
    21    33    35    1
    22    37    39    1
    23     4     8    1
    24     4    13    1
    25    16    13    1
    26     8     1    1
    27     8     5    1
    28     1     3    1
    29     1     2    1
    30    13    14    1
    31    13    15    1
    32    26    25    1
    33     5    25    1
    34     5    29    1
    35     5    21    1
    36    27    25    1
    37    32    29    1
    38    25    28    1
    39    31    29    1
    40    29    30    1
    41    23    21    1
    42    21    24    1
    43    21    22    1
