@<TRIPOS>MOLECULE
12
 12 12 0 0 0
SMALL
GASTEIGER

@<TRIPOS>ATOM
      1 C          19.4800    4.7652    8.7675 C.ar    1  UNL1        0.0190
      2 C          18.5783    5.1057    9.7748 C.ar    1  UNL1       -0.0475
      3 H          18.9585    5.5232   10.6961 H       1  UNL1        0.0629
      4 C          17.2230    4.9272    9.5851 C.ar    1  UNL1       -0.0607
      5 H          16.5319    5.2056   10.3706 H       1  UNL1        0.0618
      6 C          16.7437    4.3998    8.3967 C.ar    1  UNL1       -0.0617
      7 H          15.6806    4.2662    8.2485 H       1  UNL1        0.0618
      8 C          17.6374    4.0485    7.3964 C.ar    1  UNL1       -0.0607
      9 H          17.2729    3.6362    6.4648 H       1  UNL1        0.0618
     10 C          18.9935    4.2231    7.5779 C.ar    1  UNL1       -0.0475
     11 H          19.6904    3.9585    6.7893 H       1  UNL1        0.0629
     12 S          21.1884    4.9970    9.0379 S.3     1  UNL1       -0.0520
@<TRIPOS>BOND
     1     9     8    1
     2    11    10    1
     3     8    10   ar
     4     8     6   ar
     5    10     1   ar
     6     7     6    1
     7     6     4   ar
     8     1    12    1
     9     1     2   ar
    10     4     2   ar
    11     4     5    1
    12     2     3    1
