@<TRIPOS>MOLECULE
1
 36 36 0 0 0
SMALL
GASTEIGER

@<TRIPOS>ATOM
      1 S           8.4961   11.6666    0.9204 S.3     1  UNL1        0.0000
      2 SI         11.7015   11.8170    0.2321 Si      1  UNL1        0.0000
      3 SI          6.3082   13.7124   -0.6401 Si      1  UNL1        0.0000
      4 C           9.0991   13.0846    0.0559 C.ar    1  UNL1        0.0000
      5 C          10.4830   13.2375   -0.1043 C.ar    1  UNL1        0.0000
      6 C          10.9442   14.4136   -0.6848 C.ar    1  UNL1        0.0000
      7 C          10.0704   15.3863   -1.1335 C.ar    1  UNL1        0.0000
      8 C           8.7118   15.1422   -1.0898 C.ar    1  UNL1        0.0000
      9 C           8.1925   13.9849   -0.5133 C.ar    1  UNL1        0.0000
     10 C          11.1735   10.3389   -0.8577 C.3     1  UNL1        0.0000
     11 C          11.8974   11.4145    2.0816 C.3     1  UNL1        0.0000
     12 C          13.4314   12.3469   -0.3814 C.3     1  UNL1        0.0000
     13 C           5.7496   14.5405   -2.2717 C.3     1  UNL1        0.0000
     14 C           5.5055   14.6515    0.8097 C.3     1  UNL1        0.0000
     15 C           5.7631   11.8904   -0.7788 C.3     1  UNL1        0.0000
     16 H          12.0073   14.5629   -0.7912 H       1  UNL1        0.0000
     17 H          10.4470   16.3060   -1.5580 H       1  UNL1        0.0000
     18 H           8.0304   15.8628   -1.5143 H       1  UNL1        0.0000
     19 H          10.1885    9.9729   -0.5901 H       1  UNL1        0.0000
     20 H          11.1414   10.6306   -1.9042 H       1  UNL1        0.0000
     21 H          11.8740    9.5136   -0.7708 H       1  UNL1        0.0000
     22 H          10.9341   11.3719    2.5848 H       1  UNL1        0.0000
     23 H          12.3901   10.4582    2.2177 H       1  UNL1        0.0000
     24 H          12.5018   12.1630    2.5854 H       1  UNL1        0.0000
     25 H          14.1357   11.5329   -0.2460 H       1  UNL1        0.0000
     26 H          13.4288   12.6000   -1.4362 H       1  UNL1        0.0000
     27 H          13.8173   13.2000    0.1672 H       1  UNL1        0.0000
     28 H           5.7870   15.6224   -2.2094 H       1  UNL1        0.0000
     29 H           6.3659   14.2361   -3.1112 H       1  UNL1        0.0000
     30 H           4.7248   14.2696   -2.5021 H       1  UNL1        0.0000
     31 H           5.9027   14.2866    1.7543 H       1  UNL1        0.0000
     32 H           5.7050   15.7179    0.7479 H       1  UNL1        0.0000
     33 H           4.4293   14.5150    0.8251 H       1  UNL1        0.0000
     34 H           4.7991   11.8158   -1.2744 H       1  UNL1        0.0000
     35 H           6.4750   11.2978   -1.3466 H       1  UNL1        0.0000
     36 H           5.6611   11.4355    0.2020 H       1  UNL1        0.0000
@<TRIPOS>BOND
     1    29    13    1
     2    30    13    1
     3    13    28    1
     4    13     3    1
     5    20    10    1
     6    17     7    1
     7    18     8    1
     8    26    12    1
     9    35    15    1
    10    34    15    1
    11     7     8   ar
    12     7     6   ar
    13     8     9   ar
    14    10    21    1
    15    10    19    1
    16    10     2    1
    17    16     6    1
    18    15     3    1
    19    15    36    1
    20     6     5   ar
    21     3     9    1
    22     3    14    1
    23     9     4   ar
    24    12    25    1
    25    12    27    1
    26    12     2    1
    27     5     4   ar
    28     5     2    1
    29     4     1    1
    30     2    11    1
    31    32    14    1
    32    14    33    1
    33    14    31    1
    34    11    23    1
    35    11    22    1
    36    11    24    1
