@<TRIPOS>MOLECULE
1
 36 36 0 0 0
SMALL
GASTEIGER

@<TRIPOS>ATOM
      1 S           8.3337   10.4328    4.4197 S.3     1  UNL1        0.0000
      2 SI          8.2642   11.8565    7.4257 Si      1  UNL1        0.0000
      3 SI         10.8253    8.4139    3.9351 Si      1  UNL1        0.0000
      4 C           9.8274   10.7410    5.2948 C.ar    1  UNL1        0.0000
      5 C           9.8397   11.6166    6.3864 C.ar    1  UNL1        0.0000
      6 C          11.0843   12.0235    6.8563 C.ar    1  UNL1        0.0000
      7 C          12.2561   11.5300    6.3095 C.ar    1  UNL1        0.0000
      8 C          12.1940   10.4962    5.3924 C.ar    1  UNL1        0.0000
      9 C          10.9772   10.0616    4.8788 C.ar    1  UNL1        0.0000
     10 C           7.5687   10.1087    7.7687 C.3     1  UNL1        0.0000
     11 C           6.8952   12.9497    6.6942 C.3     1  UNL1        0.0000
     12 C           8.7896   12.6255    9.0930 C.3     1  UNL1        0.0000
     13 C          12.5387    7.5732    3.9837 C.3     1  UNL1        0.0000
     14 C          10.2941    8.4619    2.1041 C.3     1  UNL1        0.0000
     15 C           9.6380    7.3126    4.9567 C.3     1  UNL1        0.0000
     16 H          11.1325   12.7277    7.6732 H       1  UNL1        0.0000
     17 H          13.2131   11.8912    6.6585 H       1  UNL1        0.0000
     18 H          13.1039   10.0154    5.0687 H       1  UNL1        0.0000
     19 H           6.8328   10.1317    8.5671 H       1  UNL1        0.0000
     20 H           7.0785    9.7070    6.8867 H       1  UNL1        0.0000
     21 H           8.3517    9.4131    8.0580 H       1  UNL1        0.0000
     22 H           7.0084   13.9891    6.9817 H       1  UNL1        0.0000
     23 H           6.8889   12.8891    5.6058 H       1  UNL1        0.0000
     24 H           5.9282   12.6148    7.0538 H       1  UNL1        0.0000
     25 H           9.5390   12.0250    9.5969 H       1  UNL1        0.0000
     26 H           9.1879   13.6279    8.9744 H       1  UNL1        0.0000
     27 H           7.9310   12.6960    9.7519 H       1  UNL1        0.0000
     28 H          12.4777    6.5862    3.5380 H       1  UNL1        0.0000
     29 H          13.2860    8.1310    3.4286 H       1  UNL1        0.0000
     30 H          12.9008    7.4500    4.9988 H       1  UNL1        0.0000
     31 H           9.6702    9.3198    1.8717 H       1  UNL1        0.0000
     32 H          11.1566    8.5017    1.4476 H       1  UNL1        0.0000
     33 H           9.7362    7.5651    1.8498 H       1  UNL1        0.0000
     34 H           8.6420    7.7403    5.0169 H       1  UNL1        0.0000
     35 H           9.5477    6.3229    4.5180 H       1  UNL1        0.0000
     36 H          10.0002    7.1891    5.9738 H       1  UNL1        0.0000
@<TRIPOS>BOND
     1    32    14    1
     2    33    14    1
     3    31    14    1
     4    14     3    1
     5    29    13    1
     6    28    13    1
     7     3    13    1
     8     3     9    1
     9     3    15    1
    10    13    30    1
    11     1     4    1
    12    35    15    1
    13     9     4   ar
    14     9     8   ar
    15    15    34    1
    16    15    36    1
    17    18     8    1
    18     4     5   ar
    19     8     7   ar
    20    23    11    1
    21     7    17    1
    22     7     6   ar
    23     5     6   ar
    24     5     2    1
    25    11    22    1
    26    11    24    1
    27    11     2    1
    28     6    16    1
    29    20    10    1
    30     2    10    1
    31     2    12    1
    32    10    21    1
    33    10    19    1
    34    26    12    1
    35    12    25    1
    36    12    27    1
