@<TRIPOS>MOLECULE
1
 36 36 0 0 0
SMALL
GASTEIGER

@<TRIPOS>ATOM
      1 S           5.4627   11.8695    2.8180 S.3     1  UNL1        0.0000
      2 SI          3.6993   13.7228    4.7710 Si      1  UNL1        0.0000
      3 SI          5.0855    8.6048    2.8894 Si      1  UNL1        0.0000
      4 C           4.8076   11.1204    4.2706 C.ar    1  UNL1        0.0000
      5 C           4.1819   11.9387    5.2143 C.ar    1  UNL1        0.0000
      6 C           3.7780   11.3492    6.4071 C.ar    1  UNL1        0.0000
      7 C           3.9746   10.0008    6.6424 C.ar    1  UNL1        0.0000
      8 C           4.4603    9.1946    5.6284 C.ar    1  UNL1        0.0000
      9 C           4.8570    9.7286    4.4071 C.ar    1  UNL1        0.0000
     10 C           2.5217   13.6394    3.2666 C.3     1  UNL1        0.0000
     11 C           5.1398   14.9366    4.4620 C.3     1  UNL1        0.0000
     12 C           2.7009   14.4404    6.2323 C.3     1  UNL1        0.0000
     13 C           4.8206    6.7994    3.4441 C.3     1  UNL1        0.0000
     14 C           6.7662    8.6327    1.9992 C.3     1  UNL1        0.0000
     15 C           3.6830    9.0623    1.6703 C.3     1  UNL1        0.0000
     16 H           3.3005   11.9577    7.1604 H       1  UNL1        0.0000
     17 H           3.6936    9.5671    7.5917 H       1  UNL1        0.0000
     18 H           4.5206    8.1276    5.7801 H       1  UNL1        0.0000
     19 H           2.1947   14.6313    2.9692 H       1  UNL1        0.0000
     20 H           3.0042   13.1765    2.4122 H       1  UNL1        0.0000
     21 H           1.6351   13.0564    3.5000 H       1  UNL1        0.0000
     22 H           5.4495   15.4161    5.3859 H       1  UNL1        0.0000
     23 H           6.0024   14.4293    4.0328 H       1  UNL1        0.0000
     24 H           4.8327   15.7180    3.7732 H       1  UNL1        0.0000
     25 H           3.2865   14.4900    7.1446 H       1  UNL1        0.0000
     26 H           2.3800   15.4498    5.9986 H       1  UNL1        0.0000
     27 H           1.8098   13.8570    6.4376 H       1  UNL1        0.0000
     28 H           3.8409    6.6565    3.8869 H       1  UNL1        0.0000
     29 H           4.8893    6.1371    2.5879 H       1  UNL1        0.0000
     30 H           5.5656    6.4769    4.1643 H       1  UNL1        0.0000
     31 H           7.5608    8.3015    2.6618 H       1  UNL1        0.0000
     32 H           6.7490    7.9632    1.1427 H       1  UNL1        0.0000
     33 H           7.0220    9.6226    1.6243 H       1  UNL1        0.0000
     34 H           3.7364   10.1031    1.3655 H       1  UNL1        0.0000
     35 H           3.7313    8.4525    0.7729 H       1  UNL1        0.0000
     36 H           2.7086    8.9053    2.1247 H       1  UNL1        0.0000
@<TRIPOS>BOND
     1    35    15    1
     2    32    14    1
     3    34    15    1
     4    33    14    1
     5    15    36    1
     6    15     3    1
     7    14    31    1
     8    14     3    1
     9    20    10    1
    10    29    13    1
    11     1     4    1
    12     3    13    1
    13     3     9    1
    14    19    10    1
    15    10    21    1
    16    10     2    1
    17    13    28    1
    18    13    30    1
    19    24    11    1
    20    23    11    1
    21     4     9   ar
    22     4     5   ar
    23     9     8   ar
    24    11     2    1
    25    11    22    1
    26     2     5    1
    27     2    12    1
    28     5     6   ar
    29     8    18    1
    30     8     7   ar
    31    26    12    1
    32    12    27    1
    33    12    25    1
    34     6     7   ar
    35     6    16    1
    36     7    17    1
