@<TRIPOS>MOLECULE
1
 36 36 0 0 0
SMALL
GASTEIGER

@<TRIPOS>ATOM
      1 S           4.8338   -0.5282    2.5855 S.3     1  UNL1        0.0000
      2 SI          6.3300    0.5839    5.1856 Si      1  UNL1        0.0000
      3 SI          6.3939   -1.7134   -0.1412 Si      1  UNL1        0.0000
      4 C           6.5922   -0.5531    2.5346 C.ar    1  UNL1        0.0000
      5 C           7.2676   -0.1149    3.6810 C.ar    1  UNL1        0.0000
      6 C           8.6576   -0.1452    3.6669 C.ar    1  UNL1        0.0000
      7 C           9.3524   -0.6011    2.5618 C.ar    1  UNL1        0.0000
      8 C           8.6573   -1.0561    1.4575 C.ar    1  UNL1        0.0000
      9 C           7.2659   -1.0585    1.4200 C.ar    1  UNL1        0.0000
     10 C           4.8649   -0.4760    5.8095 C.3     1  UNL1        0.0000
     11 C           5.7710    2.3588    4.7429 C.3     1  UNL1        0.0000
     12 C           7.5585    0.7093    6.6424 C.3     1  UNL1        0.0000
     13 C           7.5723   -2.9720   -0.9689 C.3     1  UNL1        0.0000
     14 C           6.1444   -0.2483   -1.3392 C.3     1  UNL1        0.0000
     15 C           4.7510   -2.6440    0.1503 C.3     1  UNL1        0.0000
     16 H           9.2002    0.1912    4.5370 H       1  UNL1        0.0000
     17 H          10.4331   -0.6118    2.5659 H       1  UNL1        0.0000
     18 H           9.2044   -1.4269    0.6047 H       1  UNL1        0.0000
     19 H           4.7491   -0.3793    6.8854 H       1  UNL1        0.0000
     20 H           3.9302   -0.1724    5.3467 H       1  UNL1        0.0000
     21 H           5.0094   -1.5286    5.5851 H       1  UNL1        0.0000
     22 H           4.9101    2.6682    5.3312 H       1  UNL1        0.0000
     23 H           6.5615    3.0828    4.9207 H       1  UNL1        0.0000
     24 H           5.5004    2.4167    3.6856 H       1  UNL1        0.0000
     25 H           7.9972   -0.2535    6.8813 H       1  UNL1        0.0000
     26 H           8.3664    1.4033    6.4377 H       1  UNL1        0.0000
     27 H           7.0473    1.0647    7.5306 H       1  UNL1        0.0000
     28 H           7.9197   -3.7245   -0.2686 H       1  UNL1        0.0000
     29 H           7.0665   -3.4872   -1.7786 H       1  UNL1        0.0000
     30 H           8.4439   -2.4867   -1.3943 H       1  UNL1        0.0000
     31 H           7.0953    0.1947   -1.6216 H       1  UNL1        0.0000
     32 H           5.6395   -0.5588   -2.2490 H       1  UNL1        0.0000
     33 H           5.5495    0.5288   -0.8631 H       1  UNL1        0.0000
     34 H           3.9179   -1.9531    0.2419 H       1  UNL1        0.0000
     35 H           4.5374   -3.3149   -0.6773 H       1  UNL1        0.0000
     36 H           4.7839   -3.2390    1.0582 H       1  UNL1        0.0000
@<TRIPOS>BOND
     1    32    14    1
     2    29    13    1
     3    31    14    1
     4    30    13    1
     5    14    33    1
     6    14     3    1
     7    13    28    1
     8    13     3    1
     9    35    15    1
    10     3    15    1
    11     3     9    1
    12    15    34    1
    13    15    36    1
    14    18     8    1
    15     9     8   ar
    16     9     4   ar
    17     8     7   ar
    18     4     1    1
    19     4     5   ar
    20     7    17    1
    21     7     6   ar
    22     6     5   ar
    23     6    16    1
    24     5     2    1
    25    24    11    1
    26    11    23    1
    27    11     2    1
    28    11    22    1
    29     2    10    1
    30     2    12    1
    31    20    10    1
    32    21    10    1
    33    10    19    1
    34    26    12    1
    35    12    25    1
    36    12    27    1
