@<TRIPOS>MOLECULE
1
 17 16 0 0 0
SMALL
GASTEIGER

@<TRIPOS>ATOM
      1 S          -1.9007    2.9406    2.9941 S.3     1  UNL1        0.0000
      2 SI         -2.6498    2.8436    0.1028 Si      1  UNL1        0.0000
      3 C          -1.9723    1.8053    1.5664 C.3     1  UNL1        0.0000
      4 C          -4.4054    3.4168    0.5594 C.3     1  UNL1        0.0000
      5 C          -2.6701    1.7215   -1.4403 C.3     1  UNL1        0.0000
      6 C          -1.4650    4.3150   -0.1310 C.3     1  UNL1        0.0000
      7 H          -0.9648    1.4511    1.3515 H       1  UNL1        0.0000
      8 H          -2.6137    0.9650    1.8247 H       1  UNL1        0.0000
      9 H          -4.3973    3.9644    1.4969 H       1  UNL1        0.0000
     10 H          -4.8155    4.0698   -0.2045 H       1  UNL1        0.0000
     11 H          -5.0859    2.5778    0.6735 H       1  UNL1        0.0000
     12 H          -3.3207    0.8634   -1.3056 H       1  UNL1        0.0000
     13 H          -3.0358    2.2759   -2.2970 H       1  UNL1        0.0000
     14 H          -1.6812    1.3497   -1.6899 H       1  UNL1        0.0000
     15 H          -0.5118    4.0048   -0.5500 H       1  UNL1        0.0000
     16 H          -1.8851    5.0644   -0.7945 H       1  UNL1        0.0000
     17 H          -1.2668    4.7922    0.8266 H       1  UNL1        0.0000
@<TRIPOS>BOND
     1    13     5    1
     2    14     5    1
     3     5    12    1
     4     5     2    1
     5    16     6    1
     6    15     6    1
     7    10     4    1
     8     6     2    1
     9     6    17    1
    10     2     4    1
    11     2     3    1
    12     4    11    1
    13     4     9    1
    14     7     3    1
    15     3     8    1
    16     3     1    1
