@<TRIPOS>MOLECULE
1
 93 93 0 0 0
SMALL
GASTEIGER

@<TRIPOS>ATOM
      1 S          -1.5176   -1.8989    7.4789 S.3     1  UNL1        0.0000
      2 SI          1.0328    0.0347    4.9831 Si      1  UNL1        0.0000
      3 SI         -1.9445    1.3644    4.4010 Si      1  UNL1        0.0000
      4 SI         -3.5403   -2.4935    0.8361 Si      1  UNL1        0.0000
      5 SI         -0.3646   -3.4459    0.7453 Si      1  UNL1        0.0000
      6 SI         -3.9616   -5.3030    6.5275 Si      1  UNL1        0.0000
      7 SI         -0.7289   -6.0730    6.1786 Si      1  UNL1        0.0000
      8 C          -1.5900   -2.3750    5.7752 C.ar    1  UNL1        0.0000
      9 C          -1.3436   -1.4094    4.7892 C.ar    1  UNL1        0.0000
     10 C          -1.4895   -1.7663    3.4575 C.ar    1  UNL1        0.0000
     11 H          -1.2835   -1.0300    2.6988 H       1  UNL1        0.0000
     12 C          -1.8996   -3.0375    3.0795 C.ar    1  UNL1        0.0000
     13 C          -2.1200   -3.9725    4.0780 C.ar    1  UNL1        0.0000
     14 H          -2.4278   -4.9708    3.8110 H       1  UNL1        0.0000
     15 C          -1.9479   -3.6799    5.4223 C.ar    1  UNL1        0.0000
     16 C          -0.8807   -0.0375    5.1645 C.3     1  UNL1        0.0000
     17 H          -1.0500    0.0652    6.2423 H       1  UNL1        0.0000
     18 C          -2.0651   -3.4259    1.6445 C.3     1  UNL1        0.0000
     19 H          -2.3842   -4.4745    1.6423 H       1  UNL1        0.0000
     20 C          -2.1188   -4.7695    6.4332 C.3     1  UNL1        0.0000
     21 H          -1.9016   -4.3415    7.4293 H       1  UNL1        0.0000
     22 C           1.7567   -1.4306    5.9722 C.3     1  UNL1        0.0000
     23 H           1.3278   -1.5072    6.9761 H       1  UNL1        0.0000
     24 H           2.8331   -1.3559    6.0800 H       1  UNL1        0.0000
     25 H           1.5453   -2.3613    5.4565 H       1  UNL1        0.0000
     26 C           1.6932    1.6968    5.6499 C.3     1  UNL1        0.0000
     27 H           1.5246    2.4926    4.9318 H       1  UNL1        0.0000
     28 H           2.7626    1.6426    5.8276 H       1  UNL1        0.0000
     29 H           1.2178    1.9873    6.5794 H       1  UNL1        0.0000
     30 C           1.6482   -0.1522    3.1877 C.3     1  UNL1        0.0000
     31 H           2.7339   -0.1495    3.1612 H       1  UNL1        0.0000
     32 H           1.3073    0.6629    2.5592 H       1  UNL1        0.0000
     33 H           1.3134   -1.0808    2.7398 H       1  UNL1        0.0000
     34 C          -3.7475    0.7480    4.2704 C.3     1  UNL1        0.0000
     35 H          -3.8011   -0.2223    3.7874 H       1  UNL1        0.0000
     36 H          -4.3732    1.4357    3.7092 H       1  UNL1        0.0000
     37 H          -4.1844    0.6388    5.2585 H       1  UNL1        0.0000
     38 C          -1.9093    2.8455    5.6067 C.3     1  UNL1        0.0000
     39 H          -2.2073    2.5480    6.6070 H       1  UNL1        0.0000
     40 H          -2.5882    3.6283    5.2829 H       1  UNL1        0.0000
     41 H          -0.9186    3.2811    5.6761 H       1  UNL1        0.0000
     42 C          -1.3275    2.0055    2.7106 C.3     1  UNL1        0.0000
     43 H          -0.3816    2.5268    2.8183 H       1  UNL1        0.0000
     44 H          -2.0391    2.7090    2.2890 H       1  UNL1        0.0000
     45 H          -1.1863    1.2136    1.9838 H       1  UNL1        0.0000
     46 C          -5.0437   -2.7500    1.9863 C.3     1  UNL1        0.0000
     47 H          -5.9294   -2.2469    1.6105 H       1  UNL1        0.0000
     48 H          -4.8397   -2.3580    2.9781 H       1  UNL1        0.0000
     49 H          -5.2861   -3.8026    2.0974 H       1  UNL1        0.0000
     50 C          -3.3083   -0.6216    0.5601 C.3     1  UNL1        0.0000
     51 H          -4.1541   -0.2202    0.0087 H       1  UNL1        0.0000
     52 H          -2.4149   -0.4016   -0.0135 H       1  UNL1        0.0000
     53 H          -3.2461   -0.0802    1.4970 H       1  UNL1        0.0000
     54 C          -3.9059   -3.2887   -0.8612 C.3     1  UNL1        0.0000
     55 H          -4.8605   -2.9478   -1.2493 H       1  UNL1        0.0000
     56 H          -3.9461   -4.3712   -0.8005 H       1  UNL1        0.0000
     57 H          -3.1472   -3.0273   -1.5913 H       1  UNL1        0.0000
     58 C          -0.4186   -4.7703   -0.6297 C.3     1  UNL1        0.0000
     59 H          -0.6481   -5.7523   -0.2282 H       1  UNL1        0.0000
     60 H           0.5375   -4.8422   -1.1383 H       1  UNL1        0.0000
     61 H          -1.1694   -4.5399   -1.3772 H       1  UNL1        0.0000
     62 C           0.9662   -3.9652    2.0144 C.3     1  UNL1        0.0000
     63 H           0.8338   -4.9992    2.3187 H       1  UNL1        0.0000
     64 H           0.9088   -3.3554    2.9105 H       1  UNL1        0.0000
     65 H           1.9695   -3.8695    1.6106 H       1  UNL1        0.0000
     66 C           0.1286   -1.7876   -0.0593 C.3     1  UNL1        0.0000
     67 H           1.1610   -1.8199   -0.3950 H       1  UNL1        0.0000
     68 H           0.0379   -0.9528    0.6265 H       1  UNL1        0.0000
     69 H          -0.4881   -1.5754   -0.9269 H       1  UNL1        0.0000
     70 C          -4.4448   -6.6979    5.3172 C.3     1  UNL1        0.0000
     71 H          -4.1756   -6.4701    4.2919 H       1  UNL1        0.0000
     72 H          -5.5190   -6.8540    5.3418 H       1  UNL1        0.0000
     73 H          -3.9742   -7.6375    5.5873 H       1  UNL1        0.0000
     74 C          -4.3431   -5.9167    8.2943 C.3     1  UNL1        0.0000
     75 H          -4.4300   -5.0830    8.9830 H       1  UNL1        0.0000
     76 H          -3.5694   -6.5752    8.6730 H       1  UNL1        0.0000
     77 H          -5.2825   -6.4598    8.3208 H       1  UNL1        0.0000
     78 C          -5.0282   -3.7641    6.1573 C.3     1  UNL1        0.0000
     79 H          -6.0784   -3.9375    6.3724 H       1  UNL1        0.0000
     80 H          -4.9472   -3.4740    5.1145 H       1  UNL1        0.0000
     81 H          -4.7044   -2.9165    6.7540 H       1  UNL1        0.0000
     82 C          -0.8662   -7.1860    4.6335 C.3     1  UNL1        0.0000
     83 H          -0.0767   -7.9313    4.6473 H       1  UNL1        0.0000
     84 H          -0.7614   -6.6186    3.7153 H       1  UNL1        0.0000
     85 H          -1.8113   -7.7144    4.5935 H       1  UNL1        0.0000
     86 C          -0.6539   -7.1801    7.7272 C.3     1  UNL1        0.0000
     87 H          -0.4881   -6.5825    8.6177 H       1  UNL1        0.0000
     88 H           0.1616   -7.8921    7.6551 H       1  UNL1        0.0000
     89 H          -1.5703   -7.7439    7.8644 H       1  UNL1        0.0000
     90 C           0.8864   -5.0753    6.0228 C.3     1  UNL1        0.0000
     91 H           1.7665   -5.6870    6.1886 H       1  UNL1        0.0000
     92 H           0.9091   -4.2691    6.7615 H       1  UNL1        0.0000
     93 H           0.9754   -4.6256    5.0394 H       1  UNL1        0.0000
@<TRIPOS>BOND
     1    57    54    1
     2    61    58    1
     3    55    54    1
     4    60    58    1
     5    69    66    1
     6    54    56    1
     7    54     4    1
     8    58    59    1
     9    58     5    1
    10    67    66    1
    11    66    68    1
    12    66     5    1
    13    52    50    1
    14    51    50    1
    15    50     4    1
    16    50    53    1
    17     5    18    1
    18     5    62    1
    19     4    18    1
    20     4    46    1
    21    47    46    1
    22    65    62    1
    23    19    18    1
    24    18    12    1
    25    45    42    1
    26    46    49    1
    27    46    48    1
    28    62    63    1
    29    62    64    1
    30    44    42    1
    31    32    30    1
    32    11    10    1
    33    42    43    1
    34    42     3    1
    35    33    30    1
    36    12    10   ar
    37    12    13   ar
    38    31    30    1
    39    30     2    1
    40    10     9   ar
    41    36    34    1
    42    84    82    1
    43    35    34    1
    44    14    13    1
    45    13    15   ar
    46    34     3    1
    47    34    37    1
    48    71    70    1
    49     3    16    1
    50     3    38    1
    51    85    82    1
    52    82    83    1
    53    82     7    1
    54     9    16    1
    55     9     8   ar
    56    27    26    1
    57     2    16    1
    58     2    26    1
    59     2    22    1
    60    93    90    1
    61    80    78    1
    62    16    17    1
    63    40    38    1
    64    70    72    1
    65    70    73    1
    66    70     6    1
    67    15     8   ar
    68    15    20    1
    69    25    22    1
    70    38    41    1
    71    38    39    1
    72    26    28    1
    73    26    29    1
    74     8     1    1
    75    22    24    1
    76    22    23    1
    77    90     7    1
    78    90    91    1
    79    90    92    1
    80    78    79    1
    81    78     6    1
    82    78    81    1
    83     7    20    1
    84     7    86    1
    85    20     6    1
    86    20    21    1
    87     6    74    1
    88    88    86    1
    89    86    89    1
    90    86    87    1
    91    74    77    1
    92    74    76    1
    93    74    75    1
