@<TRIPOS>MOLECULE
1
 93 93 0 0 0
SMALL
GASTEIGER

@<TRIPOS>ATOM
      1 S           1.3154   -4.2766    9.4153 S.3     1  UNL1        0.0000
      2 SI         -1.2344   -6.2109   11.9114 Si      1  UNL1        0.0000
      3 SI          1.7431   -7.5404   12.4930 Si      1  UNL1        0.0000
      4 SI          3.3390   -3.6826   16.0577 Si      1  UNL1        0.0000
      5 SI          0.1631   -2.7309   16.1495 Si      1  UNL1        0.0000
      6 SI          3.7590   -0.8723   10.3669 Si      1  UNL1        0.0000
      7 SI          0.5261   -0.1031   10.7160 Si      1  UNL1        0.0000
      8 C           1.3880   -3.8009   11.1190 C.ar    1  UNL1        0.0000
      9 C           1.1418   -4.7667   12.1050 C.ar    1  UNL1        0.0000
     10 C           1.2879   -4.4099   13.4367 C.ar    1  UNL1        0.0000
     11 H           1.0822   -5.1464   14.1953 H       1  UNL1        0.0000
     12 C           1.6978   -3.1386   13.8148 C.ar    1  UNL1        0.0000
     13 C           1.9179   -2.2035   12.8164 C.ar    1  UNL1        0.0000
     14 H           2.2255   -1.2051   13.0834 H       1  UNL1        0.0000
     15 C           1.7457   -2.4959   11.4720 C.ar    1  UNL1        0.0000
     16 C           0.6791   -6.1386   11.7297 C.3     1  UNL1        0.0000
     17 H           0.8482   -6.2413   10.6519 H       1  UNL1        0.0000
     18 C           1.8634   -2.7504   15.2498 C.3     1  UNL1        0.0000
     19 H           2.1822   -1.7017   15.2521 H       1  UNL1        0.0000
     20 C           1.9163   -1.4062   10.4612 C.3     1  UNL1        0.0000
     21 H           1.6993   -1.8343    9.4650 H       1  UNL1        0.0000
     22 C          -1.9589   -4.7460   10.9223 C.3     1  UNL1        0.0000
     23 H          -1.5303   -4.6695    9.9183 H       1  UNL1        0.0000
     24 H          -3.0354   -4.8208   10.8147 H       1  UNL1        0.0000
     25 H          -1.7474   -3.8152   11.4375 H       1  UNL1        0.0000
     26 C          -1.8946   -7.8732   11.2448 C.3     1  UNL1        0.0000
     27 H          -1.7262   -8.6689   11.9631 H       1  UNL1        0.0000
     28 H          -2.9640   -7.8190   11.0669 H       1  UNL1        0.0000
     29 H          -1.4190   -8.1637   10.3155 H       1  UNL1        0.0000
     30 C          -1.8496   -6.0240   13.7069 C.3     1  UNL1        0.0000
     31 H          -2.9353   -6.0270   13.7336 H       1  UNL1        0.0000
     32 H          -1.5084   -6.8390   14.3354 H       1  UNL1        0.0000
     33 H          -1.5150   -5.0953   14.1548 H       1  UNL1        0.0000
     34 C           3.5461   -6.9239   12.6232 C.3     1  UNL1        0.0000
     35 H           3.5996   -5.9535   13.1062 H       1  UNL1        0.0000
     36 H           4.1720   -7.6114   13.1844 H       1  UNL1        0.0000
     37 H           3.9828   -6.8146   11.6351 H       1  UNL1        0.0000
     38 C           1.7079   -9.0215   11.2872 C.3     1  UNL1        0.0000
     39 H           2.0059   -8.7240   10.2869 H       1  UNL1        0.0000
     40 H           2.3866   -9.8043   11.6109 H       1  UNL1        0.0000
     41 H           0.7171   -9.4570   11.2176 H       1  UNL1        0.0000
     42 C           1.1264   -8.1816   14.1834 C.3     1  UNL1        0.0000
     43 H           0.1805   -8.7028   14.0760 H       1  UNL1        0.0000
     44 H           1.8381   -8.8851   14.6049 H       1  UNL1        0.0000
     45 H           0.9854   -7.3898   14.9103 H       1  UNL1        0.0000
     46 C           4.8421   -3.4257   14.9073 C.3     1  UNL1        0.0000
     47 H           5.7279   -3.9289   15.2828 H       1  UNL1        0.0000
     48 H           4.6378   -3.8176   13.9154 H       1  UNL1        0.0000
     49 H           5.0844   -2.3731   14.7964 H       1  UNL1        0.0000
     50 C           3.1075   -5.5545   16.3337 C.3     1  UNL1        0.0000
     51 H           3.9535   -5.9557   16.8848 H       1  UNL1        0.0000
     52 H           2.2144   -5.7748   16.9077 H       1  UNL1        0.0000
     53 H           3.0451   -6.0959   15.3968 H       1  UNL1        0.0000
     54 C           3.7049   -2.8875   17.7550 C.3     1  UNL1        0.0000
     55 H           4.6598   -3.2279   18.1426 H       1  UNL1        0.0000
     56 H           3.7446   -1.8049   17.6945 H       1  UNL1        0.0000
     57 H           2.9466   -3.1493   18.4855 H       1  UNL1        0.0000
     58 C           0.2171   -1.4070   17.5249 C.3     1  UNL1        0.0000
     59 H           0.4467   -0.4249   17.1238 H       1  UNL1        0.0000
     60 H          -0.7390   -1.3353   18.0335 H       1  UNL1        0.0000
     61 H           0.9679   -1.6377   18.2725 H       1  UNL1        0.0000
     62 C          -1.1679   -2.2114   14.8808 C.3     1  UNL1        0.0000
     63 H          -1.0358   -1.1773   14.5768 H       1  UNL1        0.0000
     64 H          -1.1104   -2.8209   13.9844 H       1  UNL1        0.0000
     65 H          -2.1711   -2.3076   15.2846 H       1  UNL1        0.0000
     66 C          -0.3296   -4.3896   16.9536 C.3     1  UNL1        0.0000
     67 H          -1.3620   -4.3576   17.2895 H       1  UNL1        0.0000
     68 H          -0.2389   -5.2242   16.2676 H       1  UNL1        0.0000
     69 H           0.2872   -4.6020   17.8211 H       1  UNL1        0.0000
     70 C           4.2419    0.5226   11.5773 C.3     1  UNL1        0.0000
     71 H           3.9728    0.2947   12.6026 H       1  UNL1        0.0000
     72 H           5.3161    0.6791   11.5527 H       1  UNL1        0.0000
     73 H           3.7711    1.4621   11.3073 H       1  UNL1        0.0000
     74 C           4.1403   -0.2586    8.6001 C.3     1  UNL1        0.0000
     75 H           4.2275   -1.0923    7.9115 H       1  UNL1        0.0000
     76 H           3.3662    0.3996    8.2213 H       1  UNL1        0.0000
     77 H           5.0794    0.2849    8.5735 H       1  UNL1        0.0000
     78 C           4.8259   -2.4110   10.7371 C.3     1  UNL1        0.0000
     79 H           5.8760   -2.2374   10.5218 H       1  UNL1        0.0000
     80 H           4.7451   -2.7011   11.7799 H       1  UNL1        0.0000
     81 H           4.5021   -3.2587   10.1404 H       1  UNL1        0.0000
     82 C           0.6631    1.0098   12.2611 C.3     1  UNL1        0.0000
     83 H          -0.1263    1.7551   12.2473 H       1  UNL1        0.0000
     84 H           0.5581    0.4423   13.1794 H       1  UNL1        0.0000
     85 H           1.6082    1.5381   12.3014 H       1  UNL1        0.0000
     86 C           0.4509    1.0041    9.1675 C.3     1  UNL1        0.0000
     87 H           0.2856    0.4064    8.2769 H       1  UNL1        0.0000
     88 H          -0.3649    1.7157    9.2394 H       1  UNL1        0.0000
     89 H           1.3671    1.5683    9.0305 H       1  UNL1        0.0000
     90 C          -1.0891   -1.1011   10.8717 C.3     1  UNL1        0.0000
     91 H          -1.9692   -0.4896   10.7058 H       1  UNL1        0.0000
     92 H          -1.1114   -1.9074   10.1330 H       1  UNL1        0.0000
     93 H          -1.1780   -1.5509   11.8551 H       1  UNL1        0.0000
@<TRIPOS>BOND
     1    75    74    1
     2    76    74    1
     3    87    86    1
     4    77    74    1
     5    74     6    1
     6    89    86    1
     7    86    88    1
     8    86     7    1
     9     1     8    1
    10    21    20    1
    11    23    22    1
    12    92    90    1
    13    81    78    1
    14    39    38    1
    15    29    26    1
    16     6    20    1
    17     6    78    1
    18     6    70    1
    19    20     7    1
    20    20    15    1
    21    79    78    1
    22    17    16    1
    23    91    90    1
    24     7    90    1
    25     7    82    1
    26    78    80    1
    27    24    22    1
    28    90    93    1
    29    22    25    1
    30    22     2    1
    31    28    26    1
    32     8    15   ar
    33     8     9   ar
    34    41    38    1
    35    26     2    1
    36    26    27    1
    37    38    40    1
    38    38     3    1
    39    73    70    1
    40    15    13   ar
    41    72    70    1
    42    70    71    1
    43    37    34    1
    44    16     2    1
    45    16     9    1
    46    16     3    1
    47     2    30    1
    48     9    10   ar
    49    83    82    1
    50    82    85    1
    51    82    84    1
    52     3    34    1
    53     3    42    1
    54    34    35    1
    55    34    36    1
    56    13    14    1
    57    13    12   ar
    58    10    12   ar
    59    10    11    1
    60    30    31    1
    61    30    33    1
    62    30    32    1
    63    12    18    1
    64    48    46    1
    65    64    62    1
    66    43    42    1
    67    42    44    1
    68    42    45    1
    69    63    62    1
    70    49    46    1
    71    62    65    1
    72    62     5    1
    73    46    47    1
    74    46     4    1
    75    18    19    1
    76    18     4    1
    77    18     5    1
    78    53    50    1
    79     4    50    1
    80     4    54    1
    81     5    66    1
    82     5    58    1
    83    68    66    1
    84    50    51    1
    85    50    52    1
    86    66    67    1
    87    66    69    1
    88    59    58    1
    89    58    60    1
    90    58    61    1
    91    56    54    1
    92    54    55    1
    93    54    57    1
