@<TRIPOS>MOLECULE
1
 17 16 0 0 0
SMALL
GASTEIGER

@<TRIPOS>ATOM
      1 S           1.4452    3.0098    2.7388 S.3     1  UNL1        0.0000
      2 SI          3.3306    5.1439    1.8110 Si      1  UNL1        0.0000
      3 C           1.9817    3.9201    1.2382 C.3     1  UNL1        0.0000
      4 C           4.5791    4.2632    2.9431 C.3     1  UNL1        0.0000
      5 C           2.4373    6.5362    2.7614 C.3     1  UNL1        0.0000
      6 C           4.1958    5.8280    0.2527 C.3     1  UNL1        0.0000
      7 H           2.3692    3.2011    0.5137 H       1  UNL1        0.0000
      8 H           1.0979    4.4050    0.8247 H       1  UNL1        0.0000
      9 H           5.5436    4.7610    2.9467 H       1  UNL1        0.0000
     10 H           4.2202    4.2205    3.9673 H       1  UNL1        0.0000
     11 H           4.7273    3.2361    2.5990 H       1  UNL1        0.0000
     12 H           3.1503    7.2014    3.2368 H       1  UNL1        0.0000
     13 H           1.8203    7.1359    2.0996 H       1  UNL1        0.0000
     14 H           1.7932    6.1285    3.5344 H       1  UNL1        0.0000
     15 H           4.9035    6.6035    0.5246 H       1  UNL1        0.0000
     16 H           4.7442    5.0492   -0.2678 H       1  UNL1        0.0000
     17 H           3.4884    6.2617   -0.4476 H       1  UNL1        0.0000
@<TRIPOS>BOND
     1    17     6    1
     2    16     6    1
     3     6    15    1
     4     6     2    1
     5     7     3    1
     6     8     3    1
     7     3     2    1
     8     3     1    1
     9     2     5    1
    10     2     4    1
    11    13     5    1
    12    11     4    1
    13     5    12    1
    14     5    14    1
    15     4     9    1
    16     4    10    1
