@<TRIPOS>MOLECULE
1
 14 13 0 0 0
SMALL
GASTEIGER

@<TRIPOS>ATOM
      1 S           6.2768    8.3195    5.3662 S.3     1  UNL1       -0.0867
      2 C           4.5383    8.0215    5.9614 C.3     1  UNL1        0.0184
      3 C           3.6319    9.1980    5.6406 C.3     1  UNL1       -0.0502
      4 H           3.7491    9.4916    4.5982 H       1  UNL1        0.0243
      5 H           3.8579   10.0461    6.2798 H       1  UNL1        0.0243
      6 H           2.5936    8.9123    5.8016 H       1  UNL1        0.0243
      7 C           4.0260    6.7524    5.2923 C.3     1  UNL1       -0.0502
      8 H           3.9241    6.9133    4.2203 H       1  UNL1        0.0243
      9 H           3.0497    6.4865    5.6950 H       1  UNL1        0.0243
     10 H           4.7110    5.9249    5.4681 H       1  UNL1        0.0243
     11 C           4.6575    7.8187    7.4689 C.3     1  UNL1       -0.0502
     12 H           5.0703    8.7064    7.9433 H       1  UNL1        0.0243
     13 H           5.3147    6.9799    7.6868 H       1  UNL1        0.0243
     14 H           3.6768    7.6175    7.8967 H       1  UNL1        0.0243
@<TRIPOS>BOND
     1     8     7    1
     2     4     3    1
     3     7    10    1
     4     7     9    1
     5     7     2    1
     6     1     2    1
     7     3     6    1
     8     3     2    1
     9     3     5    1
    10     2    11    1
    11    11    13    1
    12    11    14    1
    13    11    12    1
