@<TRIPOS>MOLECULE
1
 14 13 0 0 0
SMALL
GASTEIGER

@<TRIPOS>ATOM
      1 S           8.1549    7.7316    2.5127 S.3     1  UNL1       -0.0867
      2 C           8.0444    5.9079    2.8685 C.3     1  UNL1        0.0184
      3 C           6.6106    5.4486    2.6575 C.3     1  UNL1       -0.0502
      4 H           6.4831    4.4290    3.0190 H       1  UNL1        0.0243
      5 H           6.3553    5.4696    1.5984 H       1  UNL1        0.0243
      6 H           5.9251    6.1034    3.2020 H       1  UNL1        0.0243
      7 C           8.4810    5.6975    4.3103 C.3     1  UNL1       -0.0502
      8 H           9.5128    6.0158    4.4443 H       1  UNL1        0.0243
      9 H           8.4037    4.6437    4.5744 H       1  UNL1        0.0243
     10 H           7.8459    6.2754    4.9827 H       1  UNL1        0.0243
     11 C           8.9973    5.2220    1.8981 C.3     1  UNL1       -0.0502
     12 H           8.9826    4.1452    2.0588 H       1  UNL1        0.0243
     13 H          10.0121    5.5846    2.0461 H       1  UNL1        0.0243
     14 H           8.7089    5.4258    0.8685 H       1  UNL1        0.0243
@<TRIPOS>BOND
     1    14    11    1
     2     5     3    1
     3    11    13    1
     4    11    12    1
     5    11     2    1
     6     1     2    1
     7     3     2    1
     8     3     4    1
     9     3     6    1
    10     2     7    1
    11     7     8    1
    12     7     9    1
    13     7    10    1
