@<TRIPOS>MOLECULE
1
 14 13 0 0 0
SMALL
GASTEIGER

@<TRIPOS>ATOM
      1 S           4.5969    8.6775    2.3536 S.3     1  UNL1       -0.0867
      2 C           4.4969    8.3449    0.5307 C.3     1  UNL1        0.0184
      3 C           3.6522    9.4510   -0.0918 C.3     1  UNL1       -0.0502
      4 H           2.6922    9.5191    0.4161 H       1  UNL1        0.0243
      5 H           3.4751    9.2401   -1.1458 H       1  UNL1        0.0243
      6 H           4.1530   10.4126   -0.0122 H       1  UNL1        0.0243
      7 C           3.7775    7.0071    0.3857 C.3     1  UNL1       -0.0502
      8 H           2.7864    7.0657    0.8305 H       1  UNL1        0.0243
      9 H           4.3282    6.2159    0.8894 H       1  UNL1        0.0243
     10 H           3.6752    6.7481   -0.6672 H       1  UNL1        0.0243
     11 C           5.8837    8.2921   -0.0874 C.3     1  UNL1       -0.0502
     12 H           6.4471    9.1959    0.1535 H       1  UNL1        0.0243
     13 H           5.8084    8.2066   -1.1713 H       1  UNL1        0.0243
     14 H           6.4408    7.4344    0.2882 H       1  UNL1        0.0243
@<TRIPOS>BOND
     1    13    11    1
     2     5     3    1
     3    10     7    1
     4     3     6    1
     5     3     4    1
     6     3     2    1
     7    11    12    1
     8    11    14    1
     9    11     2    1
    10     7     2    1
    11     7     8    1
    12     7     9    1
    13     2     1    1
