@<TRIPOS>MOLECULE
1
 14 13 0 0 0
SMALL
GASTEIGER

@<TRIPOS>ATOM
      1 S          10.3867    5.5717    4.1506 S.3     1  UNL1        0.0000
      2 SI         11.3569    3.7941    4.8789 Si      1  UNL1        0.0000
      3 C          10.5026    2.1751    4.3351 C.3     1  UNL1        0.0000
      4 C          13.1024    3.9061    4.1172 C.3     1  UNL1        0.0000
      5 C          11.5406    3.8135    6.7851 C.3     1  UNL1        0.0000
      6 H          10.5356    1.4290    5.1233 H       1  UNL1        0.0000
      7 H          10.9964    1.7544    3.4647 H       1  UNL1        0.0000
      8 H           9.4604    2.3400    4.0685 H       1  UNL1        0.0000
      9 H          13.6070    4.8150    4.4287 H       1  UNL1        0.0000
     10 H          13.0648    3.9097    3.0326 H       1  UNL1        0.0000
     11 H          13.7096    3.0625    4.4290 H       1  UNL1        0.0000
     12 H          10.6182    3.5575    7.2984 H       1  UNL1        0.0000
     13 H          11.8666    4.7863    7.1425 H       1  UNL1        0.0000
     14 H          12.2916    3.0897    7.0858 H       1  UNL1        0.0000
@<TRIPOS>BOND
     1    10     4    1
     2     7     3    1
     3     8     3    1
     4     4     9    1
     5     4    11    1
     6     4     2    1
     7     1     2    1
     8     3     2    1
     9     3     6    1
    10     2     5    1
    11     5    14    1
    12     5    13    1
    13     5    12    1
