@<TRIPOS>MOLECULE
1
 14 13 0 0 0
SMALL
GASTEIGER

@<TRIPOS>ATOM
      1 S           7.6420    3.7410    2.9488 S.3     1  UNL1        0.0000
      2 SI          8.5845    3.4094    1.0429 Si      1  UNL1        0.0000
      3 C           7.5860    4.2097   -0.3823 C.3     1  UNL1        0.0000
      4 C           8.4959    1.5151    0.8343 C.3     1  UNL1        0.0000
      5 C          10.3989    4.0014    0.9652 C.3     1  UNL1        0.0000
      6 H           6.5186    4.0496   -0.2566 H       1  UNL1        0.0000
      7 H           7.8720    3.7586   -1.3274 H       1  UNL1        0.0000
      8 H           7.7591    5.2787   -0.4661 H       1  UNL1        0.0000
      9 H           9.0361    1.0008    1.6227 H       1  UNL1        0.0000
     10 H           8.9239    1.2147   -0.1166 H       1  UNL1        0.0000
     11 H           7.4682    1.1670    0.8635 H       1  UNL1        0.0000
     12 H          10.6105    4.5015    0.0245 H       1  UNL1        0.0000
     13 H          11.0818    3.1619    1.0497 H       1  UNL1        0.0000
     14 H          10.6306    4.6917    1.7744 H       1  UNL1        0.0000
@<TRIPOS>BOND
     1     7     3    1
     2     8     3    1
     3     3     6    1
     4     3     2    1
     5    10     4    1
     6    12     5    1
     7     4    11    1
     8     4     2    1
     9     4     9    1
    10     5     2    1
    11     5    13    1
    12     5    14    1
    13     2     1    1
