@<TRIPOS>MOLECULE
1
 23 22 0 0 0
SMALL
GASTEIGER

@<TRIPOS>ATOM
      1 S           2.5083   -0.2051    1.4608 S.3     1  UNL1        0.0000
      2 SI          3.9315   -1.8079    1.6049 Si      1  UNL1        0.0000
      3 C           3.2121   -3.5062    1.0809 C.3     1  UNL1        0.0000
      4 C           4.6005   -1.9371    3.3878 C.3     1  UNL1        0.0000
      5 C           5.3191   -1.3458    0.3395 C.3     1  UNL1        0.0000
      6 C           6.4547   -2.3635    0.4305 C.3     1  UNL1        0.0000
      7 C           5.8832    0.0450    0.6264 C.3     1  UNL1        0.0000
      8 C           4.7542   -1.3546   -1.0816 C.3     1  UNL1        0.0000
      9 H           2.5673   -3.9337    1.8423 H       1  UNL1        0.0000
     10 H           2.6414   -3.4337    0.1595 H       1  UNL1        0.0000
     11 H           4.0181   -4.2125    0.9088 H       1  UNL1        0.0000
     12 H           3.9020   -1.4833    4.0886 H       1  UNL1        0.0000
     13 H           4.7563   -2.9700    3.6833 H       1  UNL1        0.0000
     14 H           5.5478   -1.4197    3.4960 H       1  UNL1        0.0000
     15 H           6.1052   -3.3627    0.1833 H       1  UNL1        0.0000
     16 H           7.2508   -2.1037   -0.2668 H       1  UNL1        0.0000
     17 H           6.8762   -2.3886    1.4324 H       1  UNL1        0.0000
     18 H           6.3264    0.0890    1.6181 H       1  UNL1        0.0000
     19 H           6.6540    0.2989   -0.1011 H       1  UNL1        0.0000
     20 H           5.0960    0.7921    0.5661 H       1  UNL1        0.0000
     21 H           3.9201   -0.6611   -1.1600 H       1  UNL1        0.0000
     22 H           5.5198   -1.0540   -1.7964 H       1  UNL1        0.0000
     23 H           4.4062   -2.3474   -1.3561 H       1  UNL1        0.0000
@<TRIPOS>BOND
     1    22     8    1
     2    23     8    1
     3    21     8    1
     4     8     5    1
     5    16     6    1
     6    19     7    1
     7    10     3    1
     8    15     6    1
     9     5     6    1
    10     5     7    1
    11     5     2    1
    12     6    17    1
    13    20     7    1
    14     7    18    1
    15    11     3    1
    16     3     2    1
    17     3     9    1
    18     1     2    1
    19     2     4    1
    20     4    14    1
    21     4    13    1
    22     4    12    1
