@<TRIPOS>MOLECULE
1
 23 22 0 0 0
SMALL
GASTEIGER

@<TRIPOS>ATOM
      1 S           2.0818    0.2392    4.9552 S.3     1  UNL1        0.0000
      2 SI          3.5285    1.8129    5.1662 Si      1  UNL1        0.0000
      3 C           2.7373    3.5264    5.5040 C.3     1  UNL1        0.0000
      4 C           4.6131    1.9249    3.5996 C.3     1  UNL1        0.0000
      5 C           4.5565    1.3255    6.7301 C.3     1  UNL1        0.0000
      6 C           5.6992    2.3209    6.9223 C.3     1  UNL1        0.0000
      7 C           5.1468   -0.0763    6.5843 C.3     1  UNL1        0.0000
      8 C           3.6622    1.3469    7.9704 C.3     1  UNL1        0.0000
      9 H           3.4914    4.2169    5.8679 H       1  UNL1        0.0000
     10 H           2.3048    3.9646    4.6101 H       1  UNL1        0.0000
     11 H           1.9590    3.4677    6.2595 H       1  UNL1        0.0000
     12 H           5.5511    1.3947    3.7259 H       1  UNL1        0.0000
     13 H           4.0999    1.4772    2.7504 H       1  UNL1        0.0000
     14 H           4.8504    2.9543    3.3496 H       1  UNL1        0.0000
     15 H           6.2959    2.0465    7.7918 H       1  UNL1        0.0000
     16 H           6.3528    2.3366    6.0536 H       1  UNL1        0.0000
     17 H           5.3191    3.3270    7.0805 H       1  UNL1        0.0000
     18 H           4.3545   -0.8080    6.4482 H       1  UNL1        0.0000
     19 H           5.8175   -0.1300    5.7304 H       1  UNL1        0.0000
     20 H           5.7119   -0.3443    7.4768 H       1  UNL1        0.0000
     21 H           3.2770    2.3467    8.1553 H       1  UNL1        0.0000
     22 H           2.8210    0.6700    7.8404 H       1  UNL1        0.0000
     23 H           4.2244    1.0323    8.8492 H       1  UNL1        0.0000
@<TRIPOS>BOND
     1    13     4    1
     2    14     4    1
     3     4    12    1
     4     4     2    1
     5    10     3    1
     6     1     2    1
     7     2     3    1
     8     2     5    1
     9     3     9    1
    10     3    11    1
    11    19     7    1
    12    16     6    1
    13    18     7    1
    14     7     5    1
    15     7    20    1
    16     5     6    1
    17     5     8    1
    18     6    17    1
    19     6    15    1
    20    22     8    1
    21     8    21    1
    22     8    23    1
