@<TRIPOS>MOLECULE
1
 16 15 0 0 0
SMALL
GASTEIGER

@<TRIPOS>ATOM
      1 S           1.4079    3.3972    4.4711 S.3     1  UNL1        0.0080
      2 C           0.0974    3.3758    3.4306 C.1     1  UNL1       -0.0209
      3 C          -0.8215    3.4745    2.6514 C.1     1  UNL1       -0.0838
      4 C          -1.9539    3.5234    1.7333 C.3     1  UNL1        0.0244
      5 C          -2.8995    4.6490    2.1715 C.3     1  UNL1       -0.0491
      6 C          -2.6930    2.1788    1.7731 C.3     1  UNL1       -0.0491
      7 C          -1.4374    3.7953    0.3151 C.3     1  UNL1       -0.0491
      8 H          -3.2739    4.4626    3.1760 H       1  UNL1        0.0244
      9 H          -2.3769    5.6028    2.1729 H       1  UNL1        0.0244
     10 H          -3.7462    4.7150    1.4910 H       1  UNL1        0.0244
     11 H          -3.0302    1.9586    2.7843 H       1  UNL1        0.0244
     12 H          -3.5607    2.2113    1.1172 H       1  UNL1        0.0244
     13 H          -2.0402    1.3737    1.4417 H       1  UNL1        0.0244
     14 H          -0.7556    3.0081    0.0004 H       1  UNL1        0.0244
     15 H          -2.2693    3.8387   -0.3851 H       1  UNL1        0.0244
     16 H          -0.9036    4.7423    0.2831 H       1  UNL1        0.0244
@<TRIPOS>BOND
     1    15     7    1
     2    14     7    1
     3    16     7    1
     4     7     4    1
     5    12     6    1
     6    13     6    1
     7    10     5    1
     8     4     6    1
     9     4     5    1
    10     4     3    1
    11     6    11    1
    12     5     9    1
    13     5     8    1
    14     3     2    3
    15     2     1    1
