@<TRIPOS>MOLECULE
1
 16 15 0 0 0
SMALL
GASTEIGER

@<TRIPOS>ATOM
      1 S           2.0004    2.7848    7.6199 S.3     1  UNL1        0.0080
      2 C           3.2772    3.6710    6.9977 C.1     1  UNL1       -0.0209
      3 C           4.1767    4.3822    6.6181 C.1     1  UNL1       -0.0838
      4 C           5.2440    5.2002    6.0565 C.3     1  UNL1        0.0244
      5 C           6.5616    4.4154    6.0962 C.3     1  UNL1       -0.0491
      6 C           4.8795    5.5491    4.6076 C.3     1  UNL1       -0.0491
      7 C           5.3726    6.4818    6.8884 C.3     1  UNL1       -0.0491
      8 H           6.4787    3.4959    5.5197 H       1  UNL1        0.0244
      9 H           7.3671    5.0159    5.6780 H       1  UNL1        0.0244
     10 H           6.8174    4.1541    7.1209 H       1  UNL1        0.0244
     11 H           4.7888    4.6463    4.0071 H       1  UNL1        0.0244
     12 H           3.9263    6.0715    4.5737 H       1  UNL1        0.0244
     13 H           5.6464    6.1849    4.1694 H       1  UNL1        0.0244
     14 H           4.4369    7.0357    6.8744 H       1  UNL1        0.0244
     15 H           5.6131    6.2411    7.9218 H       1  UNL1        0.0244
     16 H           6.1605    7.1141    6.4839 H       1  UNL1        0.0244
@<TRIPOS>BOND
     1    11     6    1
     2    13     6    1
     3    12     6    1
     4     6     4    1
     5     8     5    1
     6     9     5    1
     7     4     5    1
     8     4     3    1
     9     4     7    1
    10     5    10    1
    11    16     7    1
    12     3     2    3
    13    14     7    1
    14     7    15    1
    15     2     1    1
