@<TRIPOS>MOLECULE
1
 49 48 0 0 0
SMALL
GASTEIGER

@<TRIPOS>ATOM
      1 S           0.8175   -2.2587   -4.5370 S.3     1  UNL1        0.0000
      2 P          -0.7473   -2.2562   -5.8537 P.3     1  UNL1        0.0000
      3 SI         -1.4780   -2.4476   -8.8010 Si      1  UNL1        0.0000
      4 SI          0.3890   -4.6597   -7.2619 Si      1  UNL1        0.0000
      5 N          -1.6506    0.2182   -5.2211 N.3     1  UNL1        0.0000
      6 N           0.2696    0.3880   -6.4824 N.3     1  UNL1        0.0000
      7 C          -0.6862   -0.3709   -5.9344 C.3     1  UNL1        0.0000
      8 C          -1.4586    1.4104   -4.4192 C.3     1  UNL1        0.0000
      9 H          -1.9909    2.2734   -4.8263 H       1  UNL1        0.0000
     10 H          -0.4011    1.6361   -4.3196 H       1  UNL1        0.0000
     11 H          -1.8493    1.2104   -3.4201 H       1  UNL1        0.0000
     12 C          -2.9269   -0.4189   -4.9839 C.3     1  UNL1        0.0000
     13 H          -2.9695   -0.8664   -3.9879 H       1  UNL1        0.0000
     14 H          -3.1127   -1.1925   -5.7252 H       1  UNL1        0.0000
     15 H          -3.7099    0.3390   -5.0574 H       1  UNL1        0.0000
     16 C           0.0609    1.7738   -6.8496 C.3     1  UNL1        0.0000
     17 H           0.5782    2.4667   -6.1816 H       1  UNL1        0.0000
     18 H          -0.9984    2.0119   -6.8768 H       1  UNL1        0.0000
     19 H           0.4644    1.9154   -7.8549 H       1  UNL1        0.0000
     20 C           1.5805   -0.0874   -6.8507 C.3     1  UNL1        0.0000
     21 H           1.8011   -1.0191   -6.3364 H       1  UNL1        0.0000
     22 H           2.3156    0.6564   -6.5346 H       1  UNL1        0.0000
     23 H           1.6655   -0.2165   -7.9328 H       1  UNL1        0.0000
     24 C          -0.1048   -2.8018   -7.5068 C.3     1  UNL1        0.0000
     25 H           0.8031   -2.2702   -7.7800 H       1  UNL1        0.0000
     26 C          -1.9595   -0.5924   -8.8253 C.3     1  UNL1        0.0000
     27 H          -1.1058    0.0421   -9.0418 H       1  UNL1        0.0000
     28 H          -2.3929   -0.2630   -7.8873 H       1  UNL1        0.0000
     29 H          -2.6972   -0.4140   -9.6018 H       1  UNL1        0.0000
     30 C          -0.8584   -2.8071  -10.5678 C.3     1  UNL1        0.0000
     31 H          -0.8791   -3.8652  -10.7958 H       1  UNL1        0.0000
     32 H           0.1585   -2.4595  -10.7204 H       1  UNL1        0.0000
     33 H          -1.4877   -2.3055  -11.2957 H       1  UNL1        0.0000
     34 C          -3.0363   -3.4538   -8.3739 C.3     1  UNL1        0.0000
     35 H          -3.2500   -3.4146   -7.3095 H       1  UNL1        0.0000
     36 H          -2.9133   -4.4978   -8.6424 H       1  UNL1        0.0000
     37 H          -3.9089   -3.0809   -8.9016 H       1  UNL1        0.0000
     38 C           2.1753   -4.7371   -6.5956 C.3     1  UNL1        0.0000
     39 H           2.2679   -4.2217   -5.6445 H       1  UNL1        0.0000
     40 H           2.8829   -4.2853   -7.2859 H       1  UNL1        0.0000
     41 H           2.4811   -5.7677   -6.4419 H       1  UNL1        0.0000
     42 C           0.3685   -5.6114   -8.9094 C.3     1  UNL1        0.0000
     43 H           0.9760   -5.1289   -9.6657 H       1  UNL1        0.0000
     44 H          -0.6341   -5.7254   -9.3036 H       1  UNL1        0.0000
     45 H           0.7715   -6.6055   -8.7535 H       1  UNL1        0.0000
     46 C          -0.8305   -5.4923   -6.0658 C.3     1  UNL1        0.0000
     47 H          -0.8342   -4.9722   -5.1095 H       1  UNL1        0.0000
     48 H          -0.5518   -6.5240   -5.8723 H       1  UNL1        0.0000
     49 H          -1.8478   -5.4893   -6.4449 H       1  UNL1        0.0000
@<TRIPOS>BOND
     1    33    30    1
     2    31    30    1
     3    32    30    1
     4    30     3    1
     5    43    42    1
     6    29    26    1
     7    44    42    1
     8    27    26    1
     9    42    45    1
    10    42     4    1
    11    37    34    1
    12    26     3    1
    13    26    28    1
    14     3    34    1
    15     3    24    1
    16    36    34    1
    17    34    35    1
    18    23    20    1
    19    19    16    1
    20    25    24    1
    21    24     4    1
    22    24     2    1
    23    40    38    1
    24     4    38    1
    25     4    46    1
    26    18    16    1
    27    20    22    1
    28    20     6    1
    29    20    21    1
    30    16     6    1
    31    16    17    1
    32    38    41    1
    33    38    39    1
    34     6     7    1
    35    49    46    1
    36    46    48    1
    37    46    47    1
    38     7     2    1
    39     7     5    1
    40     2     1    1
    41    14    12    1
    42     5    12    1
    43     5     8    1
    44    15    12    1
    45    12    13    1
    46     9     8    1
    47     8    10    1
    48     8    11    1
