@<TRIPOS>MOLECULE
1
 51 51 0 0 0
SMALL
GASTEIGER

@<TRIPOS>ATOM
      1 S           7.2110    1.6471    5.0933 S.3     1  UNL1        0.0000
      2 N           6.5596    1.6840    7.6556 N.2     1  UNL1        0.0000
      3 C           7.5452    1.5200    6.8106 C.2     1  UNL1        0.0000
      4 C           8.9150    1.2585    7.1585 C.2     1  UNL1        0.0000
      5 C           8.9465    1.2704    8.5113 C.2     1  UNL1        0.0000
      6 C           7.9980    1.4405    9.3517 C.2     1  UNL1        0.0000
      7 C           6.6822    1.6479    8.9829 C.2     1  UNL1        0.0000
      8 SI         10.2902    0.8336    5.9344 Si      1  UNL1        0.0000
      9 C           9.7249   -0.6218    4.8418 C.3     1  UNL1        0.0000
     10 C          11.6834    0.1996    7.0782 C.3     1  UNL1        0.0000
     11 C          10.8518    2.3971    4.9344 C.3     1  UNL1        0.0000
     12 C          10.2289    3.6590    5.5359 C.3     1  UNL1        0.0000
     13 C          12.3756    2.5391    4.9744 C.3     1  UNL1        0.0000
     14 C          10.4205    2.2904    3.4711 C.3     1  UNL1        0.0000
     15 SI          5.1937    1.9368   10.1242 Si      1  UNL1        0.0000
     16 C           5.7897    1.4933   11.8803 C.3     1  UNL1        0.0000
     17 C           3.7323    0.8173    9.6313 C.3     1  UNL1        0.0000
     18 C           4.7537    3.8159   10.0011 C.3     1  UNL1        0.0000
     19 C           5.9904    4.6595   10.3219 C.3     1  UNL1        0.0000
     20 C           3.6429    4.1761   10.9896 C.3     1  UNL1        0.0000
     21 C           4.2849    4.1592    8.5868 C.3     1  UNL1        0.0000
     22 H           9.1350   -0.2861    3.9971 H       1  UNL1        0.0000
     23 H           9.0993   -1.2987    5.4167 H       1  UNL1        0.0000
     24 H          10.5714   -1.1864    4.4647 H       1  UNL1        0.0000
     25 H          11.9741    0.9451    7.8114 H       1  UNL1        0.0000
     26 H          12.5696   -0.0707    6.5148 H       1  UNL1        0.0000
     27 H          11.3573   -0.6823    7.6207 H       1  UNL1        0.0000
     28 H          10.5746    4.5438    5.0021 H       1  UNL1        0.0000
     29 H          10.4987    3.7675    6.5847 H       1  UNL1        0.0000
     30 H           9.1446    3.6200    5.4623 H       1  UNL1        0.0000
     31 H          12.8592    1.6612    4.5523 H       1  UNL1        0.0000
     32 H          12.7293    2.6675    5.9937 H       1  UNL1        0.0000
     33 H          12.6866    3.4085    4.3958 H       1  UNL1        0.0000
     34 H          10.7089    3.1909    2.9292 H       1  UNL1        0.0000
     35 H           9.3419    2.1768    3.3949 H       1  UNL1        0.0000
     36 H          10.8997    1.4384    2.9954 H       1  UNL1        0.0000
     37 H           5.0482    1.7552   12.6278 H       1  UNL1        0.0000
     38 H           6.7103    2.0108   12.1305 H       1  UNL1        0.0000
     39 H           5.9791    0.4286   11.9678 H       1  UNL1        0.0000
     40 H           3.5096    0.9000    8.5727 H       1  UNL1        0.0000
     41 H           2.8339    1.0753   10.1834 H       1  UNL1        0.0000
     42 H           3.9558   -0.2258    9.8354 H       1  UNL1        0.0000
     43 H           6.7999    4.4342    9.6306 H       1  UNL1        0.0000
     44 H           6.3407    4.4695   11.3338 H       1  UNL1        0.0000
     45 H           5.7572    5.7208   10.2377 H       1  UNL1        0.0000
     46 H           2.7409    3.6038   10.7862 H       1  UNL1        0.0000
     47 H           3.3965    5.2348   10.9116 H       1  UNL1        0.0000
     48 H           3.9529    3.9762   12.0126 H       1  UNL1        0.0000
     49 H           5.0478    3.9024    7.8555 H       1  UNL1        0.0000
     50 H           4.0775    5.2261    8.5032 H       1  UNL1        0.0000
     51 H           3.3761    3.6165    8.3379 H       1  UNL1        0.0000
@<TRIPOS>BOND
     1    34    14    1
     2    36    14    1
     3    35    14    1
     4    14    11    1
     5    22     9    1
     6    33    13    1
     7    24     9    1
     8    31    13    1
     9     9    23    1
    10     9     8    1
    11    11    13    1
    12    11    12    1
    13    11     8    1
    14    13    32    1
    15    28    12    1
    16     1     3    1
    17    30    12    1
    18    12    29    1
    19     8    10    1
    20     8     4    1
    21    26    10    1
    22     3     4    1
    23     3     2    2
    24    10    27    1
    25    10    25    1
    26     4     5    2
    27     2     7    1
    28    49    21    1
    29    51    21    1
    30    50    21    1
    31     5     6    1
    32    40    17    1
    33    21    18    1
    34     7     6    2
    35     7    15    1
    36    43    19    1
    37    17    42    1
    38    17    15    1
    39    17    41    1
    40    18    15    1
    41    18    19    1
    42    18    20    1
    43    15    16    1
    44    45    19    1
    45    19    44    1
    46    46    20    1
    47    47    20    1
    48    20    48    1
    49    16    39    1
    50    16    38    1
    51    16    37    1
