@<TRIPOS>MOLECULE
1
 51 51 0 0 0
SMALL
GASTEIGER

@<TRIPOS>ATOM
      1 S           6.0907   -1.2453    6.0990 S.3     1  UNL1        0.0000
      2 N           3.5390   -1.1576    6.4132 N.2     1  UNL1        0.0000
      3 C           4.6182   -1.7868    6.8431 C.2     1  UNL1        0.0000
      4 C           4.6611   -2.8347    7.8139 C.2     1  UNL1        0.0000
      5 C           3.3733   -2.9749    8.2199 C.2     1  UNL1        0.0000
      6 C           2.3192   -2.3767    7.8191 C.2     1  UNL1        0.0000
      7 C           2.2945   -1.4128    6.8350 C.2     1  UNL1        0.0000
      8 SI          6.1733   -3.8879    8.2553 Si      1  UNL1        0.0000
      9 C           6.9226   -4.5922    6.6516 C.3     1  UNL1        0.0000
     10 C           5.3996   -5.3099    9.2691 C.3     1  UNL1        0.0000
     11 C           7.4631   -2.9146    9.3166 C.3     1  UNL1        0.0000
     12 C           8.1139   -3.8491   10.3394 C.3     1  UNL1        0.0000
     13 C           8.5675   -2.3182    8.4437 C.3     1  UNL1        0.0000
     14 C           6.7667   -1.7752   10.0622 C.3     1  UNL1        0.0000
     15 SI          0.7619   -0.6689    5.9925 Si      1  UNL1        0.0000
     16 C           0.2677   -1.9553    4.6694 C.3     1  UNL1        0.0000
     17 C           1.1154    0.9994    5.1570 C.3     1  UNL1        0.0000
     18 C          -0.5747   -0.5029    7.3763 C.3     1  UNL1        0.0000
     19 C          -0.9390   -1.8796    7.9353 C.3     1  UNL1        0.0000
     20 C          -0.0464    0.3630    8.5231 C.3     1  UNL1        0.0000
     21 C          -1.8375    0.1461    6.8091 C.3     1  UNL1        0.0000
     22 H           6.1991   -5.2143    6.1327 H       1  UNL1        0.0000
     23 H           7.7971   -5.2021    6.8554 H       1  UNL1        0.0000
     24 H           7.2169   -3.7932    5.9793 H       1  UNL1        0.0000
     25 H           4.9555   -4.9525   10.1931 H       1  UNL1        0.0000
     26 H           6.1406   -6.0582    9.5276 H       1  UNL1        0.0000
     27 H           4.6166   -5.8057    8.7033 H       1  UNL1        0.0000
     28 H           8.6095   -4.6805    9.8434 H       1  UNL1        0.0000
     29 H           7.3760   -4.2517   11.0281 H       1  UNL1        0.0000
     30 H           8.8597   -3.3073   10.9200 H       1  UNL1        0.0000
     31 H           9.1160   -3.0979    7.9212 H       1  UNL1        0.0000
     32 H           9.2700   -1.7591    9.0611 H       1  UNL1        0.0000
     33 H           8.1525   -1.6341    7.7089 H       1  UNL1        0.0000
     34 H           5.9708   -2.1536   10.7015 H       1  UNL1        0.0000
     35 H           6.3372   -1.0643    9.3594 H       1  UNL1        0.0000
     36 H           7.4811   -1.2374   10.6841 H       1  UNL1        0.0000
     37 H           1.0701   -2.0740    3.9470 H       1  UNL1        0.0000
     38 H          -0.6221   -1.6491    4.1281 H       1  UNL1        0.0000
     39 H           0.0750   -2.9308    5.1058 H       1  UNL1        0.0000
     40 H           1.9615    0.9112    4.4779 H       1  UNL1        0.0000
     41 H           1.3507    1.7810    5.8730 H       1  UNL1        0.0000
     42 H           0.2623    1.3304    4.5725 H       1  UNL1        0.0000
     43 H          -0.0540   -2.3856    8.3178 H       1  UNL1        0.0000
     44 H          -1.3866   -2.5038    7.1659 H       1  UNL1        0.0000
     45 H          -1.6551   -1.7809    8.7508 H       1  UNL1        0.0000
     46 H           0.8382   -0.0873    8.9673 H       1  UNL1        0.0000
     47 H          -0.8036    0.4665    9.3002 H       1  UNL1        0.0000
     48 H           0.2149    1.3587    8.1720 H       1  UNL1        0.0000
     49 H          -1.6263    1.1450    6.4363 H       1  UNL1        0.0000
     50 H          -2.6029    0.2270    7.5806 H       1  UNL1        0.0000
     51 H          -2.2427   -0.4461    5.9921 H       1  UNL1        0.0000
@<TRIPOS>BOND
     1    37    16    1
     2    38    16    1
     3    40    17    1
     4    42    17    1
     5    16    39    1
     6    16    15    1
     7    17    41    1
     8    17    15    1
     9    24     9    1
    10    51    21    1
    11    15     7    1
    12    15    18    1
    13     1     3    1
    14    22     9    1
    15     2     7    2
    16     2     3    1
    17    49    21    1
    18     9    23    1
    19     9     8    1
    20    21    18    1
    21    21    50    1
    22     7     6    1
    23     3     4    2
    24    44    19    1
    25    18    19    1
    26    18    20    1
    27    33    13    1
    28     4     5    1
    29     4     8    1
    30     6     5    2
    31    31    13    1
    32    19    43    1
    33    19    45    1
    34    48    20    1
    35     8    10    1
    36     8    11    1
    37    13    32    1
    38    13    11    1
    39    20    46    1
    40    20    47    1
    41    27    10    1
    42    10    26    1
    43    10    25    1
    44    11    14    1
    45    11    12    1
    46    35    14    1
    47    28    12    1
    48    14    36    1
    49    14    34    1
    50    12    30    1
    51    12    29    1
