@<TRIPOS>MOLECULE
1
 49 49 0 0 0
SMALL
GASTEIGER

@<TRIPOS>ATOM
      1 S           6.7563   -0.0841    2.8023 S.3     1  UNL1        0.0000
      2 N           4.7369   -0.1049    1.0410 N.2     1  UNL1        0.0000
      3 C           5.9479   -0.5000    1.3053 C.2     1  UNL1        0.0000
      4 C           6.7815   -1.2983    0.4520 C.2     1  UNL1        0.0000
      5 C           6.0655   -1.5476   -0.6674 C.2     1  UNL1        0.0000
      6 C           4.8761   -1.1487   -0.9290 C.2     1  UNL1        0.0000
      7 C           4.0809   -0.4033   -0.0842 C.2     1  UNL1        0.0000
      8 SI          8.4022   -1.7518    1.2776 Si      1  UNL1        0.0000
      9 C           8.4197   -3.3185    2.1321 C.3     1  UNL1        0.0000
     10 C           9.7316   -0.4767    0.8219 C.3     1  UNL1        0.0000
     11 C           9.5883   -4.2094    2.4634 C.3     1  UNL1        0.0000
     12 C          10.9260   -3.5573    2.1252 C.3     1  UNL1        0.0000
     13 C           9.4467   -5.5075    1.6516 C.3     1  UNL1        0.0000
     14 C           9.5506   -4.5532    3.9585 C.3     1  UNL1        0.0000
     15 SI          2.3026    0.2013   -0.3455 Si      1  UNL1        0.0000
     16 C           1.4722   -1.0930   -1.4751 C.3     1  UNL1        0.0000
     17 C           1.4363    0.3018    1.3423 C.3     1  UNL1        0.0000
     18 C           2.4272    1.9218   -1.2162 C.3     1  UNL1        0.0000
     19 C           1.0321    2.4785   -1.5037 C.3     1  UNL1        0.0000
     20 C           3.1871    1.7916   -2.5387 C.3     1  UNL1        0.0000
     21 C           3.1764    2.9043   -0.3145 C.3     1  UNL1        0.0000
     22 H           7.4587   -3.7470    2.3996 H       1  UNL1        0.0000
     23 H          10.6709   -0.6673    1.3311 H       1  UNL1        0.0000
     24 H           9.3972    0.5247    1.0916 H       1  UNL1        0.0000
     25 H           9.9268   -0.4856   -0.2495 H       1  UNL1        0.0000
     26 H          11.0610   -2.6503    2.7066 H       1  UNL1        0.0000
     27 H          10.9697   -3.3060    1.0687 H       1  UNL1        0.0000
     28 H          11.7443   -4.2368    2.3525 H       1  UNL1        0.0000
     29 H           9.4783   -5.2895    0.5870 H       1  UNL1        0.0000
     30 H           8.5027   -5.9975    1.8742 H       1  UNL1        0.0000
     31 H          10.2562   -6.1933    1.8914 H       1  UNL1        0.0000
     32 H           9.6136   -3.6467    4.5538 H       1  UNL1        0.0000
     33 H          10.3845   -5.2016    4.2188 H       1  UNL1        0.0000
     34 H           8.6254   -5.0659    4.2063 H       1  UNL1        0.0000
     35 H           2.0474   -1.2586   -2.3804 H       1  UNL1        0.0000
     36 H           0.4748   -0.7821   -1.7676 H       1  UNL1        0.0000
     37 H           1.3818   -2.0482   -0.9670 H       1  UNL1        0.0000
     38 H           2.0233    0.9083    2.0248 H       1  UNL1        0.0000
     39 H           1.3368   -0.6846    1.7847 H       1  UNL1        0.0000
     40 H           0.4439    0.7354    1.2706 H       1  UNL1        0.0000
     41 H           0.4753    1.8121   -2.1586 H       1  UNL1        0.0000
     42 H           1.1053    3.4501   -1.9916 H       1  UNL1        0.0000
     43 H           0.4685    2.6050   -0.5826 H       1  UNL1        0.0000
     44 H           2.6641    1.1293   -3.2248 H       1  UNL1        0.0000
     45 H           4.1863    1.3944   -2.3727 H       1  UNL1        0.0000
     46 H           3.2842    2.7663   -3.0166 H       1  UNL1        0.0000
     47 H           2.6425    3.0617    0.6188 H       1  UNL1        0.0000
     48 H           3.2875    3.8684   -0.8108 H       1  UNL1        0.0000
     49 H           4.1681    2.5292   -0.0718 H       1  UNL1        0.0000
@<TRIPOS>BOND
     1    44    20    1
     2    46    20    1
     3    20    45    1
     4    20    18    1
     5    35    16    1
     6    41    19    1
     7    42    19    1
     8    36    16    1
     9    19    18    1
    10    19    43    1
    11    16    37    1
    12    16    15    1
    13    18    15    1
    14    18    21    1
    15     6     5    2
    16     6     7    1
    17    48    21    1
    18     5     4    1
    19    15     7    1
    20    15    17    1
    21    21    49    1
    22    21    47    1
    23    25    10    1
    24     7     2    2
    25     4     8    1
    26     4     3    2
    27    29    13    1
    28    10    24    1
    29    10     8    1
    30    10    23    1
    31     2     3    1
    32    27    12    1
    33    40    17    1
    34     8     9    1
    35     3     1    1
    36    17    39    1
    37    17    38    1
    38    13    30    1
    39    13    31    1
    40    13    11    1
    41    12    28    1
    42    12    11    1
    43    12    26    1
    44     9    22    1
    45     9    11    1
    46    11    14    1
    47    14    34    1
    48    14    33    1
    49    14    32    1
