@<TRIPOS>MOLECULE
1
 32 31 0 0 0
SMALL
GASTEIGER

@<TRIPOS>ATOM
      1 S           8.0016   11.0556   14.6454 S.3     1  UNL1        0.0000
      2 SI          7.6865   10.8065   12.5709 Si      1  UNL1        0.0000
      3 C           9.0638    9.8172   11.6585 C.3     1  UNL1        0.0000
      4 H           9.9794   10.4142   11.7331 H       1  UNL1        0.0000
      5 C           8.7755    9.6255   10.1732 C.3     1  UNL1        0.0000
      6 H           8.6654   10.5828    9.6694 H       1  UNL1        0.0000
      7 H           7.8597    9.0582   10.0254 H       1  UNL1        0.0000
      8 H           9.5903    9.0810    9.6947 H       1  UNL1        0.0000
      9 C           9.3584    8.4773   12.3230 C.3     1  UNL1        0.0000
     10 H           9.4341    8.5968   13.4016 H       1  UNL1        0.0000
     11 H          10.2935    8.0536   11.9527 H       1  UNL1        0.0000
     12 H           8.5692    7.7591   12.1244 H       1  UNL1        0.0000
     13 C           7.5213   12.4933   11.6252 C.3     1  UNL1        0.0000
     14 H           7.1217   12.2599   10.6317 H       1  UNL1        0.0000
     15 C           6.5288   13.4336   12.3029 C.3     1  UNL1        0.0000
     16 H           5.5263   13.0164   12.2763 H       1  UNL1        0.0000
     17 H           6.5052   14.3995   11.7973 H       1  UNL1        0.0000
     18 H           6.8038   13.5970   13.3427 H       1  UNL1        0.0000
     19 C           8.8456   13.2225   11.4168 C.3     1  UNL1        0.0000
     20 H           9.5706   12.5904   10.9083 H       1  UNL1        0.0000
     21 H           9.2617   13.5340   12.3722 H       1  UNL1        0.0000
     22 H           8.6993   14.1176   10.8109 H       1  UNL1        0.0000
     23 C           5.9270   10.0083   12.4665 C.3     1  UNL1        0.0000
     24 H           5.4657   10.3912   11.5495 H       1  UNL1        0.0000
     25 C           5.9393    8.4863   12.3786 C.3     1  UNL1        0.0000
     26 H           6.4375    8.1428   11.4758 H       1  UNL1        0.0000
     27 H           4.9188    8.1013   12.3625 H       1  UNL1        0.0000
     28 H           6.4482    8.0634   13.2418 H       1  UNL1        0.0000
     29 C           5.0370   10.4110   13.6392 C.3     1  UNL1        0.0000
     30 H           5.0025   11.4886   13.7631 H       1  UNL1        0.0000
     31 H           5.4251    9.9857   14.5608 H       1  UNL1        0.0000
     32 H           4.0210   10.0447   13.4893 H       1  UNL1        0.0000
@<TRIPOS>BOND
     1     6     5    1
     2     8     5    1
     3     7     5    1
     4     5     3    1
     5    14    13    1
     6    22    19    1
     7    20    19    1
     8    19    13    1
     9    19    21    1
    10    26    25    1
    11    24    23    1
    12    13    15    1
    13    13     2    1
    14     3     4    1
    15     3     9    1
    16     3     2    1
    17    17    15    1
    18    11     9    1
    19    12     9    1
    20    16    15    1
    21    15    18    1
    22     9    10    1
    23    27    25    1
    24    25    23    1
    25    25    28    1
    26    23     2    1
    27    23    29    1
    28     2     1    1
    29    32    29    1
    30    29    30    1
    31    29    31    1
