@<TRIPOS>MOLECULE
2
 26 27 0 0 0
SMALL
GASTEIGER

@<TRIPOS>ATOM
      1 P           7.2140    0.3785   20.1416 P.3     1  UNL1        0.0024
      2 S           6.8170    1.3219   17.2270 S.2     1  UNL1       -0.0427
      3 S           9.4307    1.5440   18.6023 S.3     1  UNL1       -0.0427
      4 C           7.8386    1.1097   18.5765 C.2     1  UNL1        0.0721
      5 C           5.4908   -0.0188   19.6717 C.ar    1  UNL1       -0.0137
      6 C           4.9860   -1.3076   19.5589 C.ar    1  UNL1       -0.0535
      7 H           5.6276   -2.1612   19.7259 H       1  UNL1        0.0624
      8 C           3.6550   -1.5014   19.2323 C.ar    1  UNL1       -0.0611
      9 H           3.2706   -2.5068   19.1360 H       1  UNL1        0.0618
     10 C           2.8182   -0.4177   19.0303 C.ar    1  UNL1       -0.0617
     11 H           1.7822   -0.5760   18.7691 H       1  UNL1        0.0618
     12 C           3.3082    0.8702   19.1766 C.ar    1  UNL1       -0.0611
     13 H           2.6541    1.7183   19.0359 H       1  UNL1        0.0618
     14 C           4.6335    1.0673   19.5087 C.ar    1  UNL1       -0.0535
     15 H           5.0222    2.0687   19.6410 H       1  UNL1        0.0624
     16 C           8.0511   -1.2402   19.9157 C.ar    1  UNL1       -0.0137
     17 C           8.7588   -1.7713   20.9862 C.ar    1  UNL1       -0.0535
     18 H           8.7908   -1.2290   21.9207 H       1  UNL1        0.0624
     19 C           9.4179   -2.9814   20.8533 C.ar    1  UNL1       -0.0611
     20 H           9.9672   -3.3908   21.6886 H       1  UNL1        0.0618
     21 C           9.3743   -3.6638   19.6501 C.ar    1  UNL1       -0.0617
     22 H           9.8887   -4.6076   19.5434 H       1  UNL1        0.0618
     23 C           8.6714   -3.1353   18.5782 C.ar    1  UNL1       -0.0611
     24 H           8.6368   -3.6719   17.6403 H       1  UNL1        0.0618
     25 C           8.0128   -1.9272   18.7050 C.ar    1  UNL1       -0.0535
     26 H           7.4617   -1.5145   17.8692 H       1  UNL1        0.0624
@<TRIPOS>BOND
     1     2     4    2
     2    24    23    1
     3    26    25    1
     4     4     3    1
     5     4     1    1
     6    23    25   ar
     7    23    21   ar
     8    25    16   ar
     9    11    10    1
    10    10    12   ar
    11    10     8   ar
    12    13    12    1
    13     9     8    1
    14    12    14   ar
    15     8     6   ar
    16    14    15    1
    17    14     5   ar
    18    22    21    1
    19     6     5   ar
    20     6     7    1
    21    21    19   ar
    22     5     1    1
    23    16     1    1
    24    16    17   ar
    25    19    17   ar
    26    19    20    1
    27    17    18    1
