@<TRIPOS>MOLECULE
1
 14 14 0 0 0
SMALL
GASTEIGER

@<TRIPOS>ATOM
      1 S           0.6595    5.4799    7.5208 S.3     1  UNL1        0.0033
      2 O          -0.5253    5.9316    6.8200 O.3     1  UNL1       -0.0735
      3 O           1.8565    5.3223    6.7123 O.3     1  UNL1       -0.0735
      4 C           1.0615    6.8528    8.6615 C.ar    1  UNL1        0.0867
      5 C           0.0640    7.7368    9.0181 C.ar    1  UNL1       -0.0371
      6 H          -0.9291    7.5785    8.6275 H       1  UNL1        0.0636
      7 C           0.3699    8.8101    9.8403 C.ar    1  UNL1       -0.0600
      8 H          -0.3996    9.5140   10.1232 H       1  UNL1        0.0618
      9 C           1.6691    8.9863   10.2897 C.ar    1  UNL1       -0.0616
     10 H           1.9080    9.8236   10.9298 H       1  UNL1        0.0618
     11 C           2.6673    8.1022    9.9080 C.ar    1  UNL1       -0.0600
     12 H           3.6819    8.2559   10.2451 H       1  UNL1        0.0618
     13 C           2.3627    7.0283    9.0880 C.ar    1  UNL1       -0.0371
     14 H           3.1178    6.3328    8.7578 H       1  UNL1        0.0636
@<TRIPOS>BOND
     1     3     1    1
     2     2     1    1
     3     1     4    1
     4     6     5    1
     5     4     5   ar
     6     4    13   ar
     7    14    13    1
     8     5     7   ar
     9    13    11   ar
    10     7     8    1
    11     7     9   ar
    12    11    12    1
    13    11     9   ar
    14     9    10    1
