@<TRIPOS>MOLECULE
1
 17 17 0 0 0
SMALL
GASTEIGER

@<TRIPOS>ATOM
      1 S           2.4114    6.7400    3.2710 S.3     1  UNL1        0.0033
      2 O           2.5126    5.9162    2.0690 O.3     1  UNL1       -0.0735
      3 O           1.1552    6.6292    3.9877 O.3     1  UNL1       -0.0735
      4 C           2.4460    8.4365    2.6078 C.ar    1  UNL1        0.0867
      5 C           1.3386    9.2476    2.7567 C.ar    1  UNL1       -0.0368
      6 H           0.4773    8.8584    3.2772 H       1  UNL1        0.0636
      7 C           1.3620   10.5302    2.2378 C.ar    1  UNL1       -0.0570
      8 H           0.4988   11.1706    2.3497 H       1  UNL1        0.0621
      9 C           2.4865   11.0067    1.5711 C.ar    1  UNL1       -0.0503
     10 C           3.5890   10.1709    1.4317 C.ar    1  UNL1       -0.0570
     11 H           4.4673   10.5297    0.9137 H       1  UNL1        0.0621
     12 C           3.5716    8.8866    1.9487 C.ar    1  UNL1       -0.0368
     13 H           4.4222    8.2310    1.8498 H       1  UNL1        0.0636
     14 C           2.5083   12.4057    1.0336 C.3     1  UNL1       -0.0397
     15 H           2.6828   13.1140    1.8440 H       1  UNL1        0.0278
     16 H           1.5551   12.6560    0.5727 H       1  UNL1        0.0278
     17 H           3.2992   12.5291    0.2980 H       1  UNL1        0.0278
@<TRIPOS>BOND
     1    17    14    1
     2    16    14    1
     3    11    10    1
     4    14     9    1
     5    14    15    1
     6    10     9   ar
     7    10    12   ar
     8     9     7   ar
     9    13    12    1
    10    12     4   ar
    11     2     1    1
    12     7     8    1
    13     7     5   ar
    14     4     5   ar
    15     4     1    1
    16     5     6    1
    17     1     3    1
