@<TRIPOS>MOLECULE
1
 35 37 0 0 0
SMALL
GASTEIGER

@<TRIPOS>ATOM
      1 S           7.4204   12.5695    2.9293 S.3     1  UNL1        0.0000
      2 SI          6.6734   11.2321    1.4676 Si      1  UNL1        0.0000
      3 C           4.8090   10.8809    1.5733 C.ar    1  UNL1        0.0000
      4 C           4.3292    9.6855    2.0976 C.ar    1  UNL1        0.0000
      5 C           2.9734    9.4071    2.1200 C.ar    1  UNL1        0.0000
      6 C           2.0691   10.3251    1.6121 C.ar    1  UNL1        0.0000
      7 C           2.5297   11.5261    1.0970 C.ar    1  UNL1        0.0000
      8 C           3.8854   11.7990    1.0826 C.ar    1  UNL1        0.0000
      9 C           6.9931   11.8921   -0.2851 C.ar    1  UNL1        0.0000
     10 C           6.2181   11.4806   -1.3651 C.ar    1  UNL1        0.0000
     11 C           6.4752   11.9394   -2.6449 C.ar    1  UNL1        0.0000
     12 C           7.5210   12.8201   -2.8686 C.ar    1  UNL1        0.0000
     13 C           8.2991   13.2424   -1.8036 C.ar    1  UNL1        0.0000
     14 C           8.0333   12.7820   -0.5269 C.ar    1  UNL1        0.0000
     15 C           7.5901    9.5904    1.6836 C.ar    1  UNL1        0.0000
     16 C           7.4017    8.5726    0.7543 C.ar    1  UNL1        0.0000
     17 C           8.0360    7.3525    0.8954 C.ar    1  UNL1        0.0000
     18 C           8.8759    7.1298    1.9743 C.ar    1  UNL1        0.0000
     19 C           9.0778    8.1346    2.9049 C.ar    1  UNL1        0.0000
     20 C           8.4390    9.3530    2.7580 C.ar    1  UNL1        0.0000
     21 H           5.0314    8.9598    2.4826 H       1  UNL1        0.0000
     22 H           2.6213    8.4688    2.5256 H       1  UNL1        0.0000
     23 H           1.0108   10.1052    1.6174 H       1  UNL1        0.0000
     24 H           1.8298   12.2485    0.7010 H       1  UNL1        0.0000
     25 H           4.2392   12.7398    0.6863 H       1  UNL1        0.0000
     26 H           5.3987   10.7950   -1.1992 H       1  UNL1        0.0000
     27 H           5.8624   11.6070   -3.4714 H       1  UNL1        0.0000
     28 H           7.7269   13.1746   -3.8687 H       1  UNL1        0.0000
     29 H           9.1160   13.9297   -1.9698 H       1  UNL1        0.0000
     30 H           8.6349   13.1204    0.3038 H       1  UNL1        0.0000
     31 H           6.7481    8.7416   -0.0897 H       1  UNL1        0.0000
     32 H           7.8765    6.5722    0.1644 H       1  UNL1        0.0000
     33 H           9.3717    6.1762    2.0872 H       1  UNL1        0.0000
     34 H           9.7341    7.9671    3.7472 H       1  UNL1        0.0000
     35 H           8.5960   10.1392    3.4816 H       1  UNL1        0.0000
@<TRIPOS>BOND
     1    28    12    1
     2    27    11    1
     3    12    11   ar
     4    12    13   ar
     5    11    10   ar
     6    29    13    1
     7    13    14   ar
     8    10    26    1
     9    10     9   ar
    10    14     9   ar
    11    14    30    1
    12     9     2    1
    13    31    16    1
    14    32    17    1
    15    25     8    1
    16    24     7    1
    17    16    17   ar
    18    16    15   ar
    19    17    18   ar
    20     8     7   ar
    21     8     3   ar
    22     7     6   ar
    23     2     3    1
    24     2    15    1
    25     2     1    1
    26     3     4   ar
    27     6    23    1
    28     6     5   ar
    29    15    20   ar
    30    18    33    1
    31    18    19   ar
    32     4     5   ar
    33     4    21    1
    34     5    22    1
    35    20    19   ar
    36    20    35    1
    37    19    34    1
