@<TRIPOS>MOLECULE
1
 35 37 0 0 0
SMALL
GASTEIGER

@<TRIPOS>ATOM
      1 S           2.6302    4.5770    4.7521 S.3     1  UNL1        0.0000
      2 SI          2.2604    5.5454    2.9092 Si      1  UNL1        0.0000
      3 C           1.5175    7.2379    3.2998 C.ar    1  UNL1        0.0000
      4 C           0.8442    7.5011    4.4853 C.ar    1  UNL1        0.0000
      5 C           0.2932    8.7456    4.7314 C.ar    1  UNL1        0.0000
      6 C           0.4076    9.7513    3.7870 C.ar    1  UNL1        0.0000
      7 C           1.0824    9.5067    2.6025 C.ar    1  UNL1        0.0000
      8 C           1.6325    8.2606    2.3657 C.ar    1  UNL1        0.0000
      9 C           1.0853    4.5802    1.7768 C.ar    1  UNL1        0.0000
     10 C           0.2962    5.2287    0.8319 C.ar    1  UNL1        0.0000
     11 C          -0.5352    4.5145   -0.0107 C.ar    1  UNL1        0.0000
     12 C          -0.6035    3.1339    0.0842 C.ar    1  UNL1        0.0000
     13 C           0.1664    2.4720    1.0239 C.ar    1  UNL1        0.0000
     14 C           1.0059    3.1983    1.8466 C.ar    1  UNL1        0.0000
     15 C           3.8341    5.8523    1.8950 C.ar    1  UNL1        0.0000
     16 C           4.0542    5.2104    0.6819 C.ar    1  UNL1        0.0000
     17 C           5.2170    5.4221   -0.0363 C.ar    1  UNL1        0.0000
     18 C           6.1795    6.2918    0.4469 C.ar    1  UNL1        0.0000
     19 C           5.9687    6.9526    1.6460 C.ar    1  UNL1        0.0000
     20 C           4.8069    6.7307    2.3623 C.ar    1  UNL1        0.0000
     21 H           0.7679    6.7211    5.2290 H       1  UNL1        0.0000
     22 H          -0.2251    8.9331    5.6613 H       1  UNL1        0.0000
     23 H          -0.0222   10.7249    3.9747 H       1  UNL1        0.0000
     24 H           1.1817   10.2905    1.8645 H       1  UNL1        0.0000
     25 H           2.1703    8.0796    1.4448 H       1  UNL1        0.0000
     26 H           0.3364    6.3063    0.7627 H       1  UNL1        0.0000
     27 H          -1.1364    5.0360   -0.7420 H       1  UNL1        0.0000
     28 H          -1.2554    2.5739   -0.5699 H       1  UNL1        0.0000
     29 H           0.1179    1.3974    1.1134 H       1  UNL1        0.0000
     30 H           1.6170    2.6627    2.5861 H       1  UNL1        0.0000
     31 H           3.2978    4.5416    0.2944 H       1  UNL1        0.0000
     32 H           5.3737    4.9083   -0.9746 H       1  UNL1        0.0000
     33 H           7.0893    6.4581   -0.1119 H       1  UNL1        0.0000
     34 H           6.7132    7.6396    2.0233 H       1  UNL1        0.0000
     35 H           4.6443    7.2413    3.3015 H       1  UNL1        0.0000
@<TRIPOS>BOND
     1    32    17    1
     2    27    11    1
     3    28    12    1
     4    33    18    1
     5    17    18   ar
     6    17    16   ar
     7    11    12   ar
     8    11    10   ar
     9    12    13   ar
    10    31    16    1
    11    18    19   ar
    12    16    15   ar
    13    26    10    1
    14    10     9   ar
    15    13    29    1
    16    13    14   ar
    17    25     8    1
    18    19    34    1
    19    19    20   ar
    20     9    14   ar
    21     9     2    1
    22    14    30    1
    23    24     7    1
    24    15    20   ar
    25    15     2    1
    26    20    35    1
    27     8     7   ar
    28     8     3   ar
    29     7     6   ar
    30     2     3    1
    31     2     1    1
    32     3     4   ar
    33     6    23    1
    34     6     5   ar
    35     4     5   ar
    36     4    21    1
    37     5    22    1
