@<TRIPOS>MOLECULE
1
 35 37 0 0 0
SMALL
GASTEIGER

@<TRIPOS>ATOM
      1 S           2.3692    0.2227    3.6901 S.3     1  UNL1        0.0000
      2 SI          3.6051    0.1171    1.9770 Si      1  UNL1        0.0000
      3 C           5.0460    1.3446    2.0805 C.ar    1  UNL1        0.0000
      4 C           6.3093    1.0448    1.5831 C.ar    1  UNL1        0.0000
      5 C           7.3517    1.9471    1.6998 C.ar    1  UNL1        0.0000
      6 C           7.1522    3.1643    2.3299 C.ar    1  UNL1        0.0000
      7 C           5.9018    3.4803    2.8335 C.ar    1  UNL1        0.0000
      8 C           4.8664    2.5766    2.6936 C.ar    1  UNL1        0.0000
      9 C           2.7083    0.4878    0.3479 C.ar    1  UNL1        0.0000
     10 C           1.7414   -0.3887   -0.1336 C.ar    1  UNL1        0.0000
     11 C           1.0795   -0.1352   -1.3210 C.ar    1  UNL1        0.0000
     12 C           1.3736    1.0069   -2.0475 C.ar    1  UNL1        0.0000
     13 C           2.3394    1.8846   -1.5860 C.ar    1  UNL1        0.0000
     14 C           3.0013    1.6219   -0.4007 C.ar    1  UNL1        0.0000
     15 C           4.2804   -1.6426    1.8411 C.ar    1  UNL1        0.0000
     16 C           4.3117   -2.5199    2.9169 C.ar    1  UNL1        0.0000
     17 C           4.8314   -3.7947    2.7824 C.ar    1  UNL1        0.0000
     18 C           5.3302   -4.2129    1.5607 C.ar    1  UNL1        0.0000
     19 C           5.2965   -3.3533    0.4752 C.ar    1  UNL1        0.0000
     20 C           4.7737   -2.0814    0.6177 C.ar    1  UNL1        0.0000
     21 H           6.4744    0.0894    1.1062 H       1  UNL1        0.0000
     22 H           8.3257    1.6969    1.3040 H       1  UNL1        0.0000
     23 H           7.9662    3.8673    2.4286 H       1  UNL1        0.0000
     24 H           5.7302    4.4268    3.3230 H       1  UNL1        0.0000
     25 H           3.8675    2.8550    3.0553 H       1  UNL1        0.0000
     26 H           1.5096   -1.2782    0.4358 H       1  UNL1        0.0000
     27 H           0.3315   -0.8278   -1.6809 H       1  UNL1        0.0000
     28 H           0.8546    1.2099   -2.9733 H       1  UNL1        0.0000
     29 H           2.5766    2.7751   -2.1514 H       1  UNL1        0.0000
     30 H           3.7657    2.3022   -0.0503 H       1  UNL1        0.0000
     31 H           3.9063   -2.2012    3.8663 H       1  UNL1        0.0000
     32 H           4.8459   -4.4646    3.6305 H       1  UNL1        0.0000
     33 H           5.7382   -5.2077    1.4514 H       1  UNL1        0.0000
     34 H           5.6760   -3.6775   -0.4838 H       1  UNL1        0.0000
     35 H           4.7375   -1.4187   -0.2364 H       1  UNL1        0.0000
@<TRIPOS>BOND
     1    28    12    1
     2    29    13    1
     3    12    13   ar
     4    12    11   ar
     5    27    11    1
     6    13    14   ar
     7    11    10   ar
     8    34    19    1
     9    14    30    1
    10    14     9   ar
    11    35    20    1
    12    10     9   ar
    13    10    26    1
    14     9     2    1
    15    19    20   ar
    16    19    18   ar
    17    20    15   ar
    18    21     4    1
    19    22     5    1
    20    33    18    1
    21    18    17   ar
    22     4     5   ar
    23     4     3   ar
    24     5     6   ar
    25    15     2    1
    26    15    16   ar
    27     2     3    1
    28     2     1    1
    29     3     8   ar
    30     6    23    1
    31     6     7   ar
    32     8     7   ar
    33     8    25    1
    34    17    16   ar
    35    17    32    1
    36     7    24    1
    37    16    31    1
