@<TRIPOS>MOLECULE
1
 38 40 0 0 0
SMALL
GASTEIGER

@<TRIPOS>ATOM
      1 S           6.8465    4.7891   13.8695 S.3     1  UNL1        0.0000
      2 SI          6.7198    1.6716   14.6605 Si      1  UNL1        0.0000
      3 C           5.2710    4.0023   13.7982 C.ar    1  UNL1        0.0000
      4 C           4.1382    4.7473   13.4911 C.ar    1  UNL1        0.0000
      5 C           2.9026    4.1323   13.4468 C.ar    1  UNL1        0.0000
      6 C           2.7984    2.7766   13.7182 C.ar    1  UNL1        0.0000
      7 C           3.9284    2.0504   14.0515 C.ar    1  UNL1        0.0000
      8 C           5.1854    2.6438   14.1047 C.ar    1  UNL1        0.0000
      9 C           7.6572    2.5240   16.0897 C.3     1  UNL1        0.0000
     10 C           6.0493    0.0038   15.2725 C.ar    1  UNL1        0.0000
     11 C           5.6857   -0.1804   16.6017 C.ar    1  UNL1        0.0000
     12 C           5.1912   -1.3920   17.0502 C.ar    1  UNL1        0.0000
     13 C           5.0486   -2.4503   16.1689 C.ar    1  UNL1        0.0000
     14 C           5.4016   -2.2855   14.8401 C.ar    1  UNL1        0.0000
     15 C           5.8951   -1.0702   14.4015 C.ar    1  UNL1        0.0000
     16 C           7.9429    1.2770   13.2655 C.ar    1  UNL1        0.0000
     17 C           8.8388    0.2235   13.4370 C.ar    1  UNL1        0.0000
     18 C           9.7757   -0.0865   12.4688 C.ar    1  UNL1        0.0000
     19 C           9.8411    0.6622   11.3050 C.ar    1  UNL1        0.0000
     20 C           8.9606    1.7129   11.1163 C.ar    1  UNL1        0.0000
     21 C           8.0192    2.0096   12.0872 C.ar    1  UNL1        0.0000
     22 H           4.2332    5.8037   13.2838 H       1  UNL1        0.0000
     23 H           2.0244    4.7138   13.2042 H       1  UNL1        0.0000
     24 H           1.8348    2.2891   13.6825 H       1  UNL1        0.0000
     25 H           3.8384    0.9987   14.2821 H       1  UNL1        0.0000
     26 H           8.4249    3.1903   15.7084 H       1  UNL1        0.0000
     27 H           8.1415    1.7902   16.7273 H       1  UNL1        0.0000
     28 H           6.9860    3.1146   16.7058 H       1  UNL1        0.0000
     29 H           5.7912    0.6404   17.2961 H       1  UNL1        0.0000
     30 H           4.9159   -1.5133   18.0885 H       1  UNL1        0.0000
     31 H           4.6640   -3.3987   16.5157 H       1  UNL1        0.0000
     32 H           5.2917   -3.1069   14.1459 H       1  UNL1        0.0000
     33 H           6.1703   -0.9497   13.3629 H       1  UNL1        0.0000
     34 H           8.7947   -0.3620   14.3445 H       1  UNL1        0.0000
     35 H          10.4599   -0.9094   12.6223 H       1  UNL1        0.0000
     36 H          10.5765    0.4289   10.5485 H       1  UNL1        0.0000
     37 H           9.0175    2.3049   10.2141 H       1  UNL1        0.0000
     38 H           7.3368    2.8388   11.9378 H       1  UNL1        0.0000
@<TRIPOS>BOND
     1    37    20    1
     2    36    19    1
     3    20    19   ar
     4    20    21   ar
     5    19    18   ar
     6    38    21    1
     7    21    16   ar
     8    18    35    1
     9    18    17   ar
    10    23     5    1
    11    16    17   ar
    12    16     2    1
    13    22     4    1
    14    33    15    1
    15    17    34    1
    16     5     4   ar
    17     5     6   ar
    18     4     3   ar
    19    24     6    1
    20     6     7   ar
    21     3     1    1
    22     3     8   ar
    23     7     8   ar
    24     7    25    1
    25     8     2    1
    26    32    14    1
    27    15    14   ar
    28    15    10   ar
    29     2    10    1
    30     2     9    1
    31    14    13   ar
    32    10    11   ar
    33    26     9    1
    34     9    28    1
    35     9    27    1
    36    13    31    1
    37    13    12   ar
    38    11    12   ar
    39    11    29    1
    40    12    30    1
