@<TRIPOS>MOLECULE
1
 38 40 0 0 0
SMALL
GASTEIGER

@<TRIPOS>ATOM
      1 S           6.3211    8.1415   12.1584 S.3     1  UNL1        0.0000
      2 SI          4.1272    8.9482   14.3664 Si      1  UNL1        0.0000
      3 C           4.6244    8.1207   11.6553 C.ar    1  UNL1        0.0000
      4 C           4.2835    7.8387   10.3379 C.ar    1  UNL1        0.0000
      5 C           2.9548    7.8205    9.9582 C.ar    1  UNL1        0.0000
      6 C           1.9669    8.0933   10.8905 C.ar    1  UNL1        0.0000
      7 C           2.3178    8.4068   12.1915 C.ar    1  UNL1        0.0000
      8 C           3.6461    8.4343   12.6018 C.ar    1  UNL1        0.0000
      9 C           5.0402    7.6022   15.3554 C.3     1  UNL1        0.0000
     10 C           5.4854   11.1935   13.1458 C.ar    1  UNL1        0.0000
     11 C           6.2175   12.3668   13.1555 C.ar    1  UNL1        0.0000
     12 C           6.6015   12.9338   14.3582 C.ar    1  UNL1        0.0000
     13 C           6.2520   12.3171   15.5477 C.ar    1  UNL1        0.0000
     14 C           5.5341   11.1360   15.5284 C.ar    1  UNL1        0.0000
     15 C           5.1381   10.5517   14.3289 C.ar    1  UNL1        0.0000
     16 C           2.4933    9.3109   15.2641 C.ar    1  UNL1        0.0000
     17 C           1.6565    8.2722   15.6614 C.ar    1  UNL1        0.0000
     18 C           0.4651    8.5202   16.3181 C.ar    1  UNL1        0.0000
     19 C           0.0853    9.8233   16.5930 C.ar    1  UNL1        0.0000
     20 C           0.9035   10.8700   16.2040 C.ar    1  UNL1        0.0000
     21 C           2.0929   10.6119   15.5461 C.ar    1  UNL1        0.0000
     22 H           5.0585    7.6310    9.6154 H       1  UNL1        0.0000
     23 H           2.6945    7.6020    8.9320 H       1  UNL1        0.0000
     24 H           0.9263    8.0768   10.5997 H       1  UNL1        0.0000
     25 H           1.5467    8.6412   12.9109 H       1  UNL1        0.0000
     26 H           5.8714    7.1869   14.7928 H       1  UNL1        0.0000
     27 H           4.3810    6.7837   15.6291 H       1  UNL1        0.0000
     28 H           5.4479    8.0198   16.2709 H       1  UNL1        0.0000
     29 H           5.1749   10.7700   12.2019 H       1  UNL1        0.0000
     30 H           6.4845   12.8442   12.2232 H       1  UNL1        0.0000
     31 H           7.1671   13.8551   14.3691 H       1  UNL1        0.0000
     32 H           6.5408   12.7597   16.4910 H       1  UNL1        0.0000
     33 H           5.2641   10.6606   16.4608 H       1  UNL1        0.0000
     34 H           1.9425    7.2514   15.4481 H       1  UNL1        0.0000
     35 H          -0.1697    7.6977   16.6172 H       1  UNL1        0.0000
     36 H          -0.8443   10.0214   17.1071 H       1  UNL1        0.0000
     37 H           0.6126   11.8897   16.4140 H       1  UNL1        0.0000
     38 H           2.7261   11.4344   15.2451 H       1  UNL1        0.0000
@<TRIPOS>BOND
     1    23     5    1
     2    22     4    1
     3     5     4   ar
     4     5     6   ar
     5     4     3   ar
     6    24     6    1
     7     6     7   ar
     8     3     1    1
     9     3     8   ar
    10     7     8   ar
    11     7    25    1
    12    29    10    1
    13    30    11    1
    14     8     2    1
    15    10    11   ar
    16    10    15   ar
    17    11    12   ar
    18    15     2    1
    19    15    14   ar
    20    12    31    1
    21    12    13   ar
    22     2    16    1
    23     2     9    1
    24    26     9    1
    25    38    21    1
    26    16    21   ar
    27    16    17   ar
    28     9    27    1
    29     9    28    1
    30    34    17    1
    31    14    13   ar
    32    14    33    1
    33    21    20   ar
    34    13    32    1
    35    17    18   ar
    36    20    37    1
    37    20    19   ar
    38    18    19   ar
    39    18    35    1
    40    19    36    1
