@<TRIPOS>MOLECULE
1
 38 40 0 0 0
SMALL
GASTEIGER

@<TRIPOS>ATOM
      1 S           8.6816    5.4271   10.1546 S.3     1  UNL1        0.0000
      2 SI          9.3498    6.7709    7.2660 Si      1  UNL1        0.0000
      3 C           7.8433    4.7807    8.7373 C.ar    1  UNL1        0.0000
      4 C           6.9971    3.6844    8.8559 C.ar    1  UNL1        0.0000
      5 C           6.3542    3.1781    7.7429 C.ar    1  UNL1        0.0000
      6 C           6.5639    3.7592    6.5036 C.ar    1  UNL1        0.0000
      7 C           7.4359    4.8267    6.3874 C.ar    1  UNL1        0.0000
      8 C           8.0983    5.3569    7.4901 C.ar    1  UNL1        0.0000
      9 C          11.0340    6.4446    8.0975 C.3     1  UNL1        0.0000
     10 C           9.6261    6.8949    5.3900 C.ar    1  UNL1        0.0000
     11 C          10.7066    6.2762    4.7722 C.ar    1  UNL1        0.0000
     12 C          10.9039    6.3685    3.4058 C.ar    1  UNL1        0.0000
     13 C          10.0148    7.0865    2.6246 C.ar    1  UNL1        0.0000
     14 C           8.9297    7.7073    3.2203 C.ar    1  UNL1        0.0000
     15 C           8.7418    7.6093    4.5868 C.ar    1  UNL1        0.0000
     16 C           7.6404    8.5709    8.7522 C.ar    1  UNL1        0.0000
     17 C           7.1297    9.8084    9.1033 C.ar    1  UNL1        0.0000
     18 C           7.6107   10.9538    8.4941 C.ar    1  UNL1        0.0000
     19 C           8.6062   10.8531    7.5358 C.ar    1  UNL1        0.0000
     20 C           9.1107    9.6127    7.1917 C.ar    1  UNL1        0.0000
     21 C           8.6360    8.4479    7.7909 C.ar    1  UNL1        0.0000
     22 H           6.8445    3.2279    9.8215 H       1  UNL1        0.0000
     23 H           5.7004    2.3230    7.8445 H       1  UNL1        0.0000
     24 H           6.0630    3.3712    5.6285 H       1  UNL1        0.0000
     25 H           7.6174    5.2593    5.4144 H       1  UNL1        0.0000
     26 H          11.0014    6.6728    9.1568 H       1  UNL1        0.0000
     27 H          11.8096    7.0590    7.6496 H       1  UNL1        0.0000
     28 H          11.3268    5.4038    7.9965 H       1  UNL1        0.0000
     29 H          11.4060    5.7123    5.3717 H       1  UNL1        0.0000
     30 H          11.7525    5.8801    2.9476 H       1  UNL1        0.0000
     31 H          10.1662    7.1619    1.5573 H       1  UNL1        0.0000
     32 H           8.2301    8.2689    2.6170 H       1  UNL1        0.0000
     33 H           7.8934    8.0991    5.0446 H       1  UNL1        0.0000
     34 H           7.2707    7.6809    9.2473 H       1  UNL1        0.0000
     35 H           6.3597    9.8818    9.8576 H       1  UNL1        0.0000
     36 H           7.2124   11.9213    8.7650 H       1  UNL1        0.0000
     37 H           8.9887   11.7440    7.0571 H       1  UNL1        0.0000
     38 H           9.8850    9.5410    6.4410 H       1  UNL1        0.0000
@<TRIPOS>BOND
     1    31    13    1
     2    32    14    1
     3    13    14   ar
     4    13    12   ar
     5    30    12    1
     6    14    15   ar
     7    12    11   ar
     8    15    33    1
     9    15    10   ar
    10    11    29    1
    11    11    10   ar
    12    10     2    1
    13    25     7    1
    14    24     6    1
    15     7     6   ar
    16     7     8   ar
    17    38    20    1
    18     6     5   ar
    19    37    19    1
    20    20    19   ar
    21    20    21   ar
    22     2     8    1
    23     2    21    1
    24     2     9    1
    25     8     3   ar
    26    19    18   ar
    27    27     9    1
    28     5    23    1
    29     5     4   ar
    30    21    16   ar
    31    28     9    1
    32     9    26    1
    33    18    36    1
    34    18    17   ar
    35     3     4   ar
    36     3     1    1
    37    16    17   ar
    38    16    34    1
    39     4    22    1
    40    17    35    1
