@<TRIPOS>MOLECULE
2
 24 25 0 0 0
SMALL
GASTEIGER

@<TRIPOS>ATOM
      1 P           8.0114   14.7072   12.7293 P.3     1  UNL1        0.0280
      2 S           7.8210   13.9704   10.8176 S.3     1  UNL1       -0.0513
      3 C           9.6050   15.6372   12.6859 C.ar    1  UNL1       -0.0084
      4 C           8.7502   13.2999   13.6748 C.ar    1  UNL1       -0.0084
      5 C          10.5442   15.4840   11.6773 C.ar    1  UNL1       -0.0531
      6 H          10.3443   14.7985   10.8657 H       1  UNL1        0.0624
      7 C           9.8412   16.5348   13.7202 C.ar    1  UNL1       -0.0531
      8 H           9.0980   16.6547   14.4981 H       1  UNL1        0.0624
      9 C           9.8264   11.2623   15.2204 C.ar    1  UNL1       -0.0617
     10 H          10.2428   10.4670   15.8215 H       1  UNL1        0.0618
     11 C           9.3866   12.2262   13.0669 C.ar    1  UNL1       -0.0531
     12 H           9.4581   12.1922   11.9883 H       1  UNL1        0.0624
     13 C           9.2006   12.3373   15.8310 C.ar    1  UNL1       -0.0611
     14 H           9.1307   12.3817   16.9089 H       1  UNL1        0.0618
     15 C           8.6643   13.3527   15.0611 C.ar    1  UNL1       -0.0531
     16 H           8.1761   14.1976   15.5274 H       1  UNL1        0.0624
     17 C           9.9215   11.2110   13.8394 C.ar    1  UNL1       -0.0611
     18 H          10.4169   10.3776   13.3621 H       1  UNL1        0.0618
     19 C          11.0128   17.2674   13.7503 C.ar    1  UNL1       -0.0611
     20 H          11.1935   17.9664   14.5548 H       1  UNL1        0.0618
     21 C          11.7156   16.2189   11.7096 C.ar    1  UNL1       -0.0611
     22 H          12.4467   16.0987   10.9229 H       1  UNL1        0.0618
     23 C          11.9518   17.1099   12.7435 C.ar    1  UNL1       -0.0617
     24 H          12.8657   17.6856   12.7637 H       1  UNL1        0.0618
@<TRIPOS>BOND
     1     2     1    1
     2     6     5    1
     3    22    21    1
     4     5    21   ar
     5     5     3   ar
     6    21    23   ar
     7    12    11    1
     8     3     1    1
     9     3     7   ar
    10     1     4    1
    11    23    24    1
    12    23    19   ar
    13    11     4   ar
    14    11    17   ar
    15    18    17    1
    16     4    15   ar
    17     7    19   ar
    18     7     8    1
    19    19    20    1
    20    17     9   ar
    21    15    16    1
    22    15    13   ar
    23     9    10    1
    24     9    13   ar
    25    13    14    1
