@<TRIPOS>MOLECULE
2
 14 13 0 0 0
SMALL
GASTEIGER

@<TRIPOS>ATOM
      1 SI         10.8215  -11.4712    4.5281 Si      1  UNL1        0.0000
      2 S          10.0938   -9.6982    5.4486 S.3     1  UNL1        0.0000
      3 C           9.3231  -12.2224    3.6219 C.3     1  UNL1        0.0000
      4 H           9.5695  -13.1885    3.1923 H       1  UNL1        0.0000
      5 H           8.9929  -11.5713    2.8176 H       1  UNL1        0.0000
      6 H           8.4843  -12.3612    4.2971 H       1  UNL1        0.0000
      7 C          12.2147  -11.2082    3.2520 C.3     1  UNL1        0.0000
      8 H          13.1463  -10.9127    3.7251 H       1  UNL1        0.0000
      9 H          11.9384  -10.4416    2.5342 H       1  UNL1        0.0000
     10 H          12.4022  -12.1254    2.7022 H       1  UNL1        0.0000
     11 C          11.4327  -12.6450    5.9000 C.3     1  UNL1        0.0000
     12 H          11.6793  -13.6206    5.4928 H       1  UNL1        0.0000
     13 H          10.6699  -12.7835    6.6599 H       1  UNL1        0.0000
     14 H          12.3183  -12.2563    6.3938 H       1  UNL1        0.0000
@<TRIPOS>BOND
     1     9     7    1
     2    10     7    1
     3     5     3    1
     4     4     3    1
     5     7     8    1
     6     7     1    1
     7     3     6    1
     8     3     1    1
     9     1     2    1
    10     1    11    1
    11    12    11    1
    12    11    14    1
    13    11    13    1
