@<TRIPOS>MOLECULE
1
 16 16 0 0 0
SMALL
GASTEIGER

@<TRIPOS>ATOM
      1 S           8.9393    8.5720    2.5260 S.3     1  UNL1        0.1476
      2 O           8.1150    8.8295    1.3267 O.2     1  UNL1       -0.2380
      3 C          10.1322    9.8985    2.6100 C.ar    1  UNL1        0.0521
      4 C          10.2198   10.8326    1.5887 C.ar    1  UNL1       -0.0448
      5 H           9.5165   10.7755    0.7705 H       1  UNL1        0.0630
      6 C          11.1940   11.8099    1.6356 C.ar    1  UNL1       -0.0577
      7 H          11.2583   12.5441    0.8448 H       1  UNL1        0.0621
      8 C          12.0999   11.8603    2.6911 C.ar    1  UNL1       -0.0504
      9 C          12.0118   10.9022    3.6963 C.ar    1  UNL1       -0.0577
     10 H          12.7140   10.9269    4.5174 H       1  UNL1        0.0621
     11 C          11.0408    9.9198    3.6591 C.ar    1  UNL1       -0.0448
     12 H          10.9611    9.1801    4.4421 H       1  UNL1        0.0630
     13 C          13.1490   12.9297    2.7282 C.3     1  UNL1       -0.0397
     14 H          13.7847   12.8675    1.8456 H       1  UNL1        0.0278
     15 H          13.7731   12.8335    3.6129 H       1  UNL1        0.0278
     16 H          12.6865   13.9162    2.7339 H       1  UNL1        0.0278
@<TRIPOS>BOND
     1     5     4    1
     2     7     6    1
     3     2     1    2
     4     4     6   ar
     5     4     3   ar
     6     6     8   ar
     7    14    13    1
     8     1     3    1
     9     3    11   ar
    10     8    13    1
    11     8     9   ar
    12    13    16    1
    13    13    15    1
    14    11     9   ar
    15    11    12    1
    16     9    10    1
