@<TRIPOS>MOLECULE
1
 36 36 0 0 0
SMALL
GASTEIGER

@<TRIPOS>ATOM
      1 S          12.6378   -2.1269    5.8145 S.3     1  UNL1        0.0000
      2 SI         13.2565   -0.6229    3.0231 Si      1  UNL1        0.0000
      3 SI         13.5359   -1.0836    8.7429 Si      1  UNL1        0.0000
      4 C          13.6113   -0.6736    5.8956 C.ar    1  UNL1        0.0000
      5 C          13.9867   -0.0660    4.6911 C.ar    1  UNL1        0.0000
      6 C          14.8502    1.0207    4.7613 C.ar    1  UNL1        0.0000
      7 C          15.3264    1.4846    5.9746 C.ar    1  UNL1        0.0000
      8 C          14.9388    0.8628    7.1478 C.ar    1  UNL1        0.0000
      9 C          14.0798   -0.2293    7.1366 C.ar    1  UNL1        0.0000
     10 C          14.3285    0.1120    1.6246 C.3     1  UNL1        0.0000
     11 C          13.1078   -2.4950    2.6701 C.3     1  UNL1        0.0000
     12 C          11.5183    0.1637    2.9357 C.3     1  UNL1        0.0000
     13 C          13.9730   -2.9400    8.8107 C.3     1  UNL1        0.0000
     14 C          11.6608   -0.8011    8.9880 C.3     1  UNL1        0.0000
     15 C          14.4264   -0.2477   10.2101 C.3     1  UNL1        0.0000
     16 H          15.1601    1.5064    3.8483 H       1  UNL1        0.0000
     17 H          16.0020    2.3279    6.0050 H       1  UNL1        0.0000
     18 H          15.3162    1.2260    8.0919 H       1  UNL1        0.0000
     19 H          14.2881    1.1957    1.6169 H       1  UNL1        0.0000
     20 H          15.3688   -0.1814    1.7158 H       1  UNL1        0.0000
     21 H          13.9751   -0.2300    0.6578 H       1  UNL1        0.0000
     22 H          12.2069   -2.9163    3.1280 H       1  UNL1        0.0000
     23 H          13.0601   -2.6830    1.6012 H       1  UNL1        0.0000
     24 H          13.9563   -3.0456    3.0639 H       1  UNL1        0.0000
     25 H          10.8827   -0.2654    3.7068 H       1  UNL1        0.0000
     26 H          11.5657    1.2378    3.0925 H       1  UNL1        0.0000
     27 H          11.0484   -0.0131    1.9742 H       1  UNL1        0.0000
     28 H          13.3236   -3.5254    8.1688 H       1  UNL1        0.0000
     29 H          14.9954   -3.1137    8.4883 H       1  UNL1        0.0000
     30 H          13.8770   -3.3216    9.8233 H       1  UNL1        0.0000
     31 H          11.4593    0.2249    9.2838 H       1  UNL1        0.0000
     32 H          11.1195   -1.0027    8.0679 H       1  UNL1        0.0000
     33 H          11.2600   -1.4508    9.7596 H       1  UNL1        0.0000
     34 H          14.1961    0.8105   10.2781 H       1  UNL1        0.0000
     35 H          14.1201   -0.7062   11.1444 H       1  UNL1        0.0000
     36 H          15.5038   -0.3504   10.1360 H       1  UNL1        0.0000
@<TRIPOS>BOND
     1    21    10    1
     2    23    11    1
     3    19    10    1
     4    10    20    1
     5    10     2    1
     6    27    12    1
     7    11     2    1
     8    11    24    1
     9    11    22    1
    10    12     2    1
    11    12    26    1
    12    12    25    1
    13     2     5    1
    14    16     6    1
    15     5     6   ar
    16     5     4   ar
    17     6     7   ar
    18     1     4    1
    19     4     9   ar
    20     7    17    1
    21     7     8   ar
    22     9     8   ar
    23     9     3    1
    24     8    18    1
    25    32    14    1
    26    28    13    1
    27    29    13    1
    28     3    13    1
    29     3    14    1
    30     3    15    1
    31    13    30    1
    32    14    31    1
    33    14    33    1
    34    36    15    1
    35    15    34    1
    36    15    35    1
