@<TRIPOS>MOLECULE
1
 36 36 0 0 0
SMALL
GASTEIGER

@<TRIPOS>ATOM
      1 S           9.3501   -4.3035    4.7723 S.3     1  UNL1        0.0000
      2 SI          8.1924   -4.6952    7.6701 Si      1  UNL1        0.0000
      3 SI          7.6741   -3.4481    2.1616 Si      1  UNL1        0.0000
      4 C           7.6842   -3.8103    4.9974 C.ar    1  UNL1        0.0000
      5 C           7.1521   -3.9075    6.2881 C.ar    1  UNL1        0.0000
      6 C           5.8391   -3.4969    6.4768 C.ar    1  UNL1        0.0000
      7 C           5.0800   -3.0165    5.4222 C.ar    1  UNL1        0.0000
      8 C           5.6191   -2.9753    4.1480 C.ar    1  UNL1        0.0000
      9 C           6.9274   -3.3771    3.9057 C.ar    1  UNL1        0.0000
     10 C           9.8959   -3.8705    7.9331 C.3     1  UNL1        0.0000
     11 C           7.2381   -4.5303    9.3178 C.3     1  UNL1        0.0000
     12 C           8.4005   -6.5610    7.3143 C.3     1  UNL1        0.0000
     13 C           6.3909   -2.7630    0.9237 C.3     1  UNL1        0.0000
     14 C           8.0275   -5.2624    1.6829 C.3     1  UNL1        0.0000
     15 C           9.2464   -2.3727    2.0093 C.3     1  UNL1        0.0000
     16 H           5.4031   -3.5582    7.4630 H       1  UNL1        0.0000
     17 H           4.0607   -2.6959    5.5901 H       1  UNL1        0.0000
     18 H           5.0130   -2.6292    3.3237 H       1  UNL1        0.0000
     19 H           9.9088   -2.8665    7.5014 H       1  UNL1        0.0000
     20 H          10.1522   -3.7811    8.9841 H       1  UNL1        0.0000
     21 H          10.6829   -4.4480    7.4478 H       1  UNL1        0.0000
     22 H           7.0600   -3.4987    9.6020 H       1  UNL1        0.0000
     23 H           6.2789   -5.0338    9.2689 H       1  UNL1        0.0000
     24 H           7.8036   -4.9955   10.1179 H       1  UNL1        0.0000
     25 H           8.9147   -6.7277    6.3735 H       1  UNL1        0.0000
     26 H           8.9752   -7.0452    8.0984 H       1  UNL1        0.0000
     27 H           7.4366   -7.0584    7.2567 H       1  UNL1        0.0000
     28 H           5.4936   -3.3720    0.9056 H       1  UNL1        0.0000
     29 H           6.0972   -1.7433    1.1510 H       1  UNL1        0.0000
     30 H           6.8046   -2.7675   -0.0789 H       1  UNL1        0.0000
     31 H           7.1314   -5.8713    1.7625 H       1  UNL1        0.0000
     32 H           8.3845   -5.3328    0.6595 H       1  UNL1        0.0000
     33 H           8.7810   -5.6990    2.3300 H       1  UNL1        0.0000
     34 H           9.9937   -2.8671    1.3971 H       1  UNL1        0.0000
     35 H           9.0346   -1.4093    1.5561 H       1  UNL1        0.0000
     36 H           9.6950   -2.1943    2.9894 H       1  UNL1        0.0000
@<TRIPOS>BOND
     1    30    13    1
     2    32    14    1
     3    28    13    1
     4    13    29    1
     5    13     3    1
     6    34    15    1
     7    35    15    1
     8    14    31    1
     9    14     3    1
    10    14    33    1
    11    15     3    1
    12    15    36    1
    13     3     9    1
    14    18     8    1
    15     9     8   ar
    16     9     4   ar
    17     8     7   ar
    18     1     4    1
    19     4     5   ar
    20     7    17    1
    21     7     6   ar
    22     5     6   ar
    23     5     2    1
    24    25    12    1
    25     6    16    1
    26    27    12    1
    27    12     2    1
    28    12    26    1
    29    21    10    1
    30    19    10    1
    31     2    10    1
    32     2    11    1
    33    10    20    1
    34    23    11    1
    35    11    22    1
    36    11    24    1
