@<TRIPOS>MOLECULE
1
 21 23 0 0 0
SMALL
GASTEIGER

@<TRIPOS>ATOM
      1 S           3.2031    4.6218   10.1928 S.2     1  UNL1       -0.0882
      2 C           1.6876    5.4410    9.8498 C.ar    1  UNL1        0.0205
      3 C           1.2559    6.2646   10.8997 C.ar    1  UNL1       -0.0031
      4 C           0.0777    6.9893   10.7460 C.ar    1  UNL1       -0.0529
      5 C          -0.6333    6.8869    9.5666 C.ar    1  UNL1       -0.0611
      6 C          -0.1863    6.0713    8.5315 C.ar    1  UNL1       -0.0607
      7 C           0.9817    5.3442    8.6656 C.ar    1  UNL1       -0.0474
      8 C           3.2327    5.3410   11.7950 C.ar    1  UNL1        0.0205
      9 C           2.1524    6.2047   12.0304 C.ar    1  UNL1       -0.0031
     10 C           2.0684    6.8584   13.2562 C.ar    1  UNL1       -0.0529
     11 C           3.0506    6.6518   14.2049 C.ar    1  UNL1       -0.0611
     12 C           4.1247    5.8053   13.9482 C.ar    1  UNL1       -0.0607
     13 C           4.2260    5.1474   12.7367 C.ar    1  UNL1       -0.0474
     14 H          -0.2738    7.6266   11.5438 H       1  UNL1        0.0624
     15 H          -1.5485    7.4471    9.4438 H       1  UNL1        0.0618
     16 H          -0.7581    6.0060    7.6176 H       1  UNL1        0.0618
     17 H           1.3411    4.7003    7.8778 H       1  UNL1        0.0629
     18 H           1.2421    7.5235   13.4587 H       1  UNL1        0.0624
     19 H           2.9875    7.1562   15.1578 H       1  UNL1        0.0618
     20 H           4.8845    5.6629   14.7022 H       1  UNL1        0.0618
     21 H           5.0503    4.4856   12.5191 H       1  UNL1        0.0629
@<TRIPOS>BOND
     1    16     6    1
     2    17     7    1
     3     6     7   ar
     4     6     5   ar
     5     7     2   ar
     6    15     5    1
     7     5     4   ar
     8     2     1   ar
     9     2     3   ar
    10     1     8   ar
    11     4     3   ar
    12     4    14    1
    13     3     9   ar
    14     8     9   ar
    15     8    13   ar
    16     9    10   ar
    17    21    13    1
    18    13    12   ar
    19    10    18    1
    20    10    11   ar
    21    12    11   ar
    22    12    20    1
    23    11    19    1
