@<TRIPOS>MOLECULE
1
 35 37 0 0 0
SMALL
GASTEIGER

@<TRIPOS>ATOM
      1 S          -1.5174    1.0750    9.7471 S.3     1  UNL1        0.0000
      2 SI         -0.2935    2.6659    9.0938 Si      1  UNL1        0.0000
      3 C          -0.2218    3.9619   10.4691 C.ar    1  UNL1        0.0000
      4 C           0.0451    5.2909   10.1619 C.ar    1  UNL1        0.0000
      5 C           0.1240    6.2492   11.1556 C.ar    1  UNL1        0.0000
      6 C          -0.0647    5.8902   12.4797 C.ar    1  UNL1        0.0000
      7 C          -0.3354    4.5709   12.8008 C.ar    1  UNL1        0.0000
      8 C          -0.4117    3.6176   11.8017 C.ar    1  UNL1        0.0000
      9 C           1.4510    2.0388    8.7087 C.ar    1  UNL1        0.0000
     10 C           2.4309    2.8971    8.2231 C.ar    1  UNL1        0.0000
     11 C           3.6931    2.4287    7.9077 C.ar    1  UNL1        0.0000
     12 C           3.9955    1.0872    8.0729 C.ar    1  UNL1        0.0000
     13 C           3.0330    0.2215    8.5637 C.ar    1  UNL1        0.0000
     14 C           1.7754    0.6994    8.8818 C.ar    1  UNL1        0.0000
     15 C          -1.0397    3.4728    7.5515 C.ar    1  UNL1        0.0000
     16 C          -2.2020    4.2291    7.6617 C.ar    1  UNL1        0.0000
     17 C          -2.7959    4.7935    6.5479 C.ar    1  UNL1        0.0000
     18 C          -2.2308    4.6096    5.2965 C.ar    1  UNL1        0.0000
     19 C          -1.0698    3.8651    5.1709 C.ar    1  UNL1        0.0000
     20 C          -0.4821    3.3025    6.2904 C.ar    1  UNL1        0.0000
     21 H           0.1837    5.5794    9.1290 H       1  UNL1        0.0000
     22 H           0.3312    7.2788   10.8987 H       1  UNL1        0.0000
     23 H          -0.0040    6.6379   13.2578 H       1  UNL1        0.0000
     24 H          -0.4880    4.2863   13.8324 H       1  UNL1        0.0000
     25 H          -0.6322    2.5893   12.0474 H       1  UNL1        0.0000
     26 H           2.1986    3.9442    8.0871 H       1  UNL1        0.0000
     27 H           4.4423    3.1087    7.5266 H       1  UNL1        0.0000
     28 H           4.9790    0.7185    7.8181 H       1  UNL1        0.0000
     29 H           3.2595   -0.8278    8.6904 H       1  UNL1        0.0000
     30 H           1.0163    0.0246    9.2566 H       1  UNL1        0.0000
     31 H          -2.6391    4.3786    8.6397 H       1  UNL1        0.0000
     32 H          -3.6993    5.3783    6.6524 H       1  UNL1        0.0000
     33 H          -2.6928    5.0475    4.4228 H       1  UNL1        0.0000
     34 H          -0.6221    3.7217    4.1973 H       1  UNL1        0.0000
     35 H           0.4254    2.7267    6.1857 H       1  UNL1        0.0000
@<TRIPOS>BOND
     1    34    19    1
     2    33    18    1
     3    19    18   ar
     4    19    20   ar
     5    18    17   ar
     6    35    20    1
     7    20    15   ar
     8    17    32    1
     9    17    16   ar
    10    27    11    1
    11    15    16   ar
    12    15     2    1
    13    16    31    1
    14    28    12    1
    15    11    12   ar
    16    11    10   ar
    17    12    13   ar
    18    26    10    1
    19    10     9   ar
    20    13    29    1
    21    13    14   ar
    22     9    14   ar
    23     9     2    1
    24    14    30    1
    25     2     1    1
    26     2     3    1
    27    21     4    1
    28     4     3   ar
    29     4     5   ar
    30     3     8   ar
    31    22     5    1
    32     5     6   ar
    33     8    25    1
    34     8     7   ar
    35     6     7   ar
    36     6    23    1
    37     7    24    1
