@<TRIPOS>MOLECULE
1
 10 9 0 0 0
SMALL
GASTEIGER

@<TRIPOS>ATOM
      1 S           4.8194    2.0732    4.3614 S.3     1  UNL1       -0.0495
      2 O           5.0104    2.4437    5.7663 O.3     1  UNL1       -0.1626
      3 C           6.3521    1.2186    3.8887 C.3     1  UNL1       -0.0004
      4 H           7.1825    1.8205    4.2373 H       1  UNL1        0.0355
      5 H           6.3540    1.0967    2.8136 H       1  UNL1        0.0355
      6 H           6.3466    0.2555    4.3893 H       1  UNL1        0.0355
      7 C           5.0546    3.6121    3.4300 C.3     1  UNL1       -0.0004
      8 H           4.1850    4.2326    3.6216 H       1  UNL1        0.0355
      9 H           5.1184    3.3609    2.3796 H       1  UNL1        0.0355
     10 H           5.9543    4.0887    3.7996 H       1  UNL1        0.0355
@<TRIPOS>BOND
     1     9     7    1
     2     5     3    1
     3     7     8    1
     4     7    10    1
     5     7     1    1
     6     3     4    1
     7     3     1    1
     8     3     6    1
     9     1     2    1
