@<TRIPOS>MOLECULE
1
 10 9 0 0 0
SMALL
GASTEIGER

@<TRIPOS>ATOM
      1 S           3.2070    0.5550    2.0928 S.3     1  UNL1       -0.0495
      2 O           4.3804    1.3213    1.6737 O.3     1  UNL1       -0.1626
      3 C           1.9272    0.9726    0.8614 C.3     1  UNL1       -0.0004
      4 H           1.4128    1.8569    1.2250 H       1  UNL1        0.0355
      5 H           1.2363    0.1487    0.7348 H       1  UNL1        0.0355
      6 H           2.4505    1.1976   -0.0606 H       1  UNL1        0.0355
      7 C           3.5476   -1.1422    1.5406 C.3     1  UNL1       -0.0004
      8 H           3.8807   -1.0941    0.5107 H       1  UNL1        0.0355
      9 H           2.6524   -1.7403    1.6519 H       1  UNL1        0.0355
     10 H           4.3349   -1.5299    2.1793 H       1  UNL1        0.0355
@<TRIPOS>BOND
     1     6     3    1
     2     8     7    1
     3     5     3    1
     4     3     4    1
     5     3     1    1
     6     7     9    1
     7     7     1    1
     8     7    10    1
     9     2     1    1
