@<TRIPOS>MOLECULE
1
 36 36 0 0 0
SMALL
GASTEIGER

@<TRIPOS>ATOM
      1 S           0.2991    1.6072    1.4128 S.3     1  UNL1        0.0000
      2 SI          2.6688    3.6417    0.4815 Si      1  UNL1        0.0000
      3 SI         -2.9723    2.5003    1.4673 Si      1  UNL1        0.0000
      4 C          -0.1435    3.2839    1.0702 C.ar    1  UNL1        0.0000
      5 C           0.8571    4.1832    0.6854 C.ar    1  UNL1        0.0000
      6 C           0.4894    5.5024    0.4488 C.ar    1  UNL1        0.0000
      7 C          -0.8231    5.9181    0.5820 C.ar    1  UNL1        0.0000
      8 C          -1.7961    4.9954    0.9125 C.ar    1  UNL1        0.0000
      9 C          -1.4881    3.6570    1.1448 C.ar    1  UNL1        0.0000
     10 C           2.8549    2.1933   -0.7480 C.3     1  UNL1        0.0000
     11 C           3.4343    3.2965    2.1940 C.3     1  UNL1        0.0000
     12 C           3.6472    5.1005   -0.2712 C.3     1  UNL1        0.0000
     13 C          -4.1797    2.8274    0.0168 C.3     1  UNL1        0.0000
     14 C          -3.7922    3.0501    3.1029 C.3     1  UNL1        0.0000
     15 C          -2.7406    0.6056    1.4889 C.3     1  UNL1        0.0000
     16 H           1.2462    6.2142    0.1552 H       1  UNL1        0.0000
     17 H          -1.0888    6.9519    0.4076 H       1  UNL1        0.0000
     18 H          -2.8252    5.3155    0.9849 H       1  UNL1        0.0000
     19 H           2.4457    2.4564   -1.7196 H       1  UNL1        0.0000
     20 H           3.9024    1.9421   -0.8898 H       1  UNL1        0.0000
     21 H           2.3395    1.3037   -0.4043 H       1  UNL1        0.0000
     22 H           2.7513    2.7292    2.8273 H       1  UNL1        0.0000
     23 H           4.3538    2.7257    2.1118 H       1  UNL1        0.0000
     24 H           3.6669    4.2208    2.7161 H       1  UNL1        0.0000
     25 H           3.6707    5.9639    0.3856 H       1  UNL1        0.0000
     26 H           4.6754    4.8030   -0.4466 H       1  UNL1        0.0000
     27 H           3.2343    5.4155   -1.2237 H       1  UNL1        0.0000
     28 H          -4.4957    3.8641   -0.0160 H       1  UNL1        0.0000
     29 H          -3.7265    2.5951   -0.9418 H       1  UNL1        0.0000
     30 H          -5.0733    2.2195    0.1142 H       1  UNL1        0.0000
     31 H          -3.1462    2.8384    3.9532 H       1  UNL1        0.0000
     32 H          -4.0029    4.1151    3.1044 H       1  UNL1        0.0000
     33 H          -4.7321    2.5294    3.2605 H       1  UNL1        0.0000
     34 H          -3.7086    0.1112    1.4925 H       1  UNL1        0.0000
     35 H          -2.1907    0.2586    0.6193 H       1  UNL1        0.0000
     36 H          -2.1933    0.2816    2.3743 H       1  UNL1        0.0000
@<TRIPOS>BOND
     1    19    10    1
     2    27    12    1
     3    29    13    1
     4    20    10    1
     5    10    21    1
     6    10     2    1
     7    26    12    1
     8    12    25    1
     9    12     2    1
    10    28    13    1
    11    13    30    1
    12    13     3    1
    13    16     6    1
    14    17     7    1
    15     6     7   ar
    16     6     5   ar
    17     2     5    1
    18     2    11    1
    19     7     8   ar
    20    35    15    1
    21     5     4   ar
    22     8    18    1
    23     8     9   ar
    24     4     9   ar
    25     4     1    1
    26     9     3    1
    27     3    15    1
    28     3    14    1
    29    15    34    1
    30    15    36    1
    31    23    11    1
    32    11    24    1
    33    11    22    1
    34    14    32    1
    35    14    33    1
    36    14    31    1
