@<TRIPOS>MOLECULE
1
 36 36 0 0 0
SMALL
GASTEIGER

@<TRIPOS>ATOM
      1 S           2.2408    1.2659    4.9763 S.3     1  UNL1        0.0000
      2 SI          4.0912   -1.0714    3.5736 Si      1  UNL1        0.0000
      3 SI          1.0391    0.8244    7.9446 Si      1  UNL1        0.0000
      4 C           2.1289   -0.3924    5.5699 C.ar    1  UNL1        0.0000
      5 C           2.7798   -1.4311    4.9020 C.ar    1  UNL1        0.0000
      6 C           2.5061   -2.7292    5.3219 C.ar    1  UNL1        0.0000
      7 C           1.6309   -2.9791    6.3625 C.ar    1  UNL1        0.0000
      8 C           1.1011   -1.9211    7.0806 C.ar    1  UNL1        0.0000
      9 C           1.3604   -0.6031    6.7203 C.ar    1  UNL1        0.0000
     10 C           5.3955    0.1380    4.2674 C.3     1  UNL1        0.0000
     11 C           3.3755   -0.4342    1.9256 C.3     1  UNL1        0.0000
     12 C           4.9938   -2.7126    3.1887 C.3     1  UNL1        0.0000
     13 C          -0.0385    0.1301    9.3644 C.3     1  UNL1        0.0000
     14 C           0.2331    2.4721    7.4299 C.3     1  UNL1        0.0000
     15 C           2.7854    1.2148    8.6252 C.3     1  UNL1        0.0000
     16 H           2.9886   -3.5565    4.8229 H       1  UNL1        0.0000
     17 H           1.4038   -3.9967    6.6505 H       1  UNL1        0.0000
     18 H           0.4864   -2.1229    7.9452 H       1  UNL1        0.0000
     19 H           5.7993   -0.2195    5.2106 H       1  UNL1        0.0000
     20 H           6.2254    0.2525    3.5758 H       1  UNL1        0.0000
     21 H           4.9687    1.1196    4.4443 H       1  UNL1        0.0000
     22 H           2.6199    0.3323    2.0911 H       1  UNL1        0.0000
     23 H           4.1570    0.0054    1.3137 H       1  UNL1        0.0000
     24 H           2.9136   -1.2267    1.3436 H       1  UNL1        0.0000
     25 H           4.3424   -3.4521    2.7335 H       1  UNL1        0.0000
     26 H           5.8056   -2.5300    2.4930 H       1  UNL1        0.0000
     27 H           5.4246   -3.1534    4.0813 H       1  UNL1        0.0000
     28 H          -1.0088   -0.2142    9.0198 H       1  UNL1        0.0000
     29 H           0.4484   -0.6936    9.8754 H       1  UNL1        0.0000
     30 H          -0.2153    0.9055   10.1018 H       1  UNL1        0.0000
     31 H           0.0640    3.0874    8.3097 H       1  UNL1        0.0000
     32 H           0.8706    3.0307    6.7493 H       1  UNL1        0.0000
     33 H          -0.7268    2.3294    6.9384 H       1  UNL1        0.0000
     34 H           3.2553    0.3280    9.0406 H       1  UNL1        0.0000
     35 H           3.4299    1.5885    7.8353 H       1  UNL1        0.0000
     36 H           2.7468    1.9666    9.4075 H       1  UNL1        0.0000
@<TRIPOS>BOND
     1    23    11    1
     2    24    11    1
     3    11    22    1
     4    11     2    1
     5    26    12    1
     6    25    12    1
     7    12     2    1
     8    12    27    1
     9     2    10    1
    10     2     5    1
    11    20    10    1
    12    10    21    1
    13    10    19    1
    14    16     6    1
    15     5     6   ar
    16     5     4   ar
    17     1     4    1
    18     6     7   ar
    19     4     9   ar
    20     7    17    1
    21     7     8   ar
    22     9     8   ar
    23     9     3    1
    24    32    14    1
    25    33    14    1
    26     8    18    1
    27    14     3    1
    28    14    31    1
    29    35    15    1
    30     3    15    1
    31     3    13    1
    32    15    34    1
    33    15    36    1
    34    28    13    1
    35    13    29    1
    36    13    30    1
