@<TRIPOS>MOLECULE
1
 26 28 0 0 0
SMALL
GASTEIGER

@<TRIPOS>ATOM
      1 S           4.2772    6.5516   23.4182 S.3     1  UNL1       -0.0858
      2 C           2.9777    7.4585   24.3892 C.3     1  UNL1        0.0276
      3 C           1.1360    9.1248   24.2400 C.3     1  UNL1       -0.0393
      4 H           0.5695    9.7667   23.5568 H       1  UNL1        0.0301
      5 C           2.6240    9.0801   26.2398 C.3     1  UNL1       -0.0393
      6 H           3.1253    9.6914   26.9976 H       1  UNL1        0.0301
      7 C           3.6789    8.3117   25.4409 C.3     1  UNL1       -0.0346
      8 H           4.3667    9.0020   24.9498 H       1  UNL1        0.0281
      9 H           4.2654    7.6692   26.1000 H       1  UNL1        0.0281
     10 C           1.8282    9.9826   25.2981 C.3     1  UNL1       -0.0473
     11 H           1.0839   10.5472   25.8637 H       1  UNL1        0.0271
     12 H           2.4971   10.6979   24.8151 H       1  UNL1        0.0271
     13 C           1.6769    8.0930   26.9215 C.3     1  UNL1       -0.0473
     14 H           2.2357    7.4548   27.6093 H       1  UNL1        0.0271
     15 H           0.9286    8.6373   27.5017 H       1  UNL1        0.0271
     16 C           0.9879    7.2346   25.8607 C.3     1  UNL1       -0.0393
     17 H           0.3143    6.5198   26.3456 H       1  UNL1        0.0301
     18 C           0.1914    8.1276   24.9104 C.3     1  UNL1       -0.0473
     19 H          -0.5824    8.6629   25.4649 H       1  UNL1        0.0271
     20 H          -0.2994    7.5144   24.1506 H       1  UNL1        0.0271
     21 C           2.1872    8.3525   23.4417 C.3     1  UNL1       -0.0346
     22 H           1.6846    7.7356   22.6823 H       1  UNL1        0.0281
     23 H           2.8656    9.0393   22.9279 H       1  UNL1        0.0281
     24 C           2.0479    6.4624   25.0720 C.3     1  UNL1       -0.0346
     25 H           2.6224    5.8246   25.7480 H       1  UNL1        0.0281
     26 H           1.5664    5.8127   24.3243 H       1  UNL1        0.0281
@<TRIPOS>BOND
     1    22    21    1
     2    23    21    1
     3     1     2    1
     4    21     3    1
     5    21     2    1
     6     4     3    1
     7    20    18    1
     8     3    18    1
     9     3    10    1
    10    26    24    1
    11     2    24    1
    12     2     7    1
    13    12    10    1
    14    18    19    1
    15    18    16    1
    16     8     7    1
    17    24    25    1
    18    24    16    1
    19    10    11    1
    20    10     5    1
    21     7     9    1
    22     7     5    1
    23    16    17    1
    24    16    13    1
    25     5    13    1
    26     5     6    1
    27    13    15    1
    28    13    14    1
