@<TRIPOS>MOLECULE
1
 16 15 0 0 0
SMALL
GASTEIGER

@<TRIPOS>ATOM
      1 S           2.1355    3.0755    3.7327 S.3     1  UNL1        0.0000
      2 SI          1.4696    0.3316    2.7940 Si      1  UNL1        0.0000
      3 O           3.0302    3.3624    2.6329 O.2     1  UNL1        0.0000
      4 N           1.4376    1.7530    3.7978 N.3     1  UNL1        0.0000
      5 C          -0.3609   -0.0633    2.4567 C.3     1  UNL1        0.0000
      6 H          -0.9223   -0.1044    3.3840 H       1  UNL1        0.0000
      7 H          -0.4615   -1.0236    1.9623 H       1  UNL1        0.0000
      8 H          -0.8259    0.6860    1.8236 H       1  UNL1        0.0000
      9 C           2.3000   -1.0040    3.8687 C.3     1  UNL1        0.0000
     10 H           2.2212   -1.9798    3.4011 H       1  UNL1        0.0000
     11 H           1.8263   -1.0615    4.8432 H       1  UNL1        0.0000
     12 H           3.3539   -0.7955    4.0261 H       1  UNL1        0.0000
     13 C           2.4242    0.5837    1.1655 C.3     1  UNL1        0.0000
     14 H           2.4662   -0.3280    0.5769 H       1  UNL1        0.0000
     15 H           3.4447    0.9026    1.3565 H       1  UNL1        0.0000
     16 H           1.9581    1.3505    0.5530 H       1  UNL1        0.0000
@<TRIPOS>BOND
     1    16    13    1
     2    14    13    1
     3    13    15    1
     4    13     2    1
     5     8     5    1
     6     7     5    1
     7     5     2    1
     8     5     6    1
     9     3     1    2
    10     2     4    1
    11     2     9    1
    12    10     9    1
    13     1     4    1
    14     9    12    1
    15     9    11    1
