@<TRIPOS>MOLECULE
1
 45 47 0 0 0
SMALL
GASTEIGER

@<TRIPOS>ATOM
      1 S          -1.9792    6.9119    9.1412 S.3     1  UNL1        0.0000
      2 C          -1.7449    5.3026    8.3213 C.3     1  UNL1        0.0000
      3 C          -2.0745    5.3461    6.8365 C.3     1  UNL1        0.0000
      4 C          -3.4739    5.9078    6.5766 C.3     1  UNL1        0.0000
      5 O          -4.4554    5.2854    7.3492 O.3     1  UNL1        0.0000
      6 C          -6.3102    3.5517    5.9228 C.ar    1  UNL1        0.0000
      7 C          -6.8421    4.6588    5.2670 C.ar    1  UNL1        0.0000
      8 C          -7.7603    4.5133    4.2428 C.ar    1  UNL1        0.0000
      9 C          -8.1702    3.2488    3.8556 C.ar    1  UNL1        0.0000
     10 C          -7.6538    2.1349    4.4965 C.ar    1  UNL1        0.0000
     11 C          -6.7336    2.2883    5.5173 C.ar    1  UNL1        0.0000
     12 C          -3.7527    2.4144    7.1699 C.ar    1  UNL1        0.0000
     13 C          -2.1910    0.8710    8.1843 C.ar    1  UNL1        0.0000
     14 SI         -5.0699    3.7798    7.3375 Si      1  UNL1        0.0000
     15 C          -3.1856    1.8261    8.2970 C.ar    1  UNL1        0.0000
     16 C          -1.7441    0.4806    6.9334 C.ar    1  UNL1        0.0000
     17 C          -2.3011    1.0474    5.7993 C.ar    1  UNL1        0.0000
     18 C          -3.2940    2.0028    5.9204 C.ar    1  UNL1        0.0000
     19 C          -5.8708    3.6639    9.0413 C.ar    1  UNL1        0.0000
     20 C          -5.5300    4.5407   10.0666 C.ar    1  UNL1        0.0000
     21 C          -6.0891    4.4151   11.3258 C.ar    1  UNL1        0.0000
     22 C          -7.0016    3.4060   11.5825 C.ar    1  UNL1        0.0000
     23 C          -7.3546    2.5273   10.5717 C.ar    1  UNL1        0.0000
     24 C          -6.7915    2.6581    9.3156 C.ar    1  UNL1        0.0000
     25 H          -0.7157    4.9834    8.4835 H       1  UNL1        0.0000
     26 H          -2.4224    4.6269    8.8421 H       1  UNL1        0.0000
     27 H          -1.3579    5.9890    6.3159 H       1  UNL1        0.0000
     28 H          -2.0011    4.3314    6.4403 H       1  UNL1        0.0000
     29 H          -3.4838    6.9733    6.8463 H       1  UNL1        0.0000
     30 H          -3.7104    5.8135    5.5111 H       1  UNL1        0.0000
     31 H          -6.5279    5.6472    5.5698 H       1  UNL1        0.0000
     32 H          -8.1591    5.3864    3.7457 H       1  UNL1        0.0000
     33 H          -8.8886    3.1311    3.0569 H       1  UNL1        0.0000
     34 H          -7.9693    1.1452    4.1973 H       1  UNL1        0.0000
     35 H          -6.3277    1.4137    6.0064 H       1  UNL1        0.0000
     36 H          -1.7637    0.4289    9.0731 H       1  UNL1        0.0000
     37 H          -3.5362    2.1206    9.2765 H       1  UNL1        0.0000
     38 H          -0.9672   -0.2648    6.8419 H       1  UNL1        0.0000
     39 H          -1.9605    0.7431    4.8196 H       1  UNL1        0.0000
     40 H          -3.7263    2.4388    5.0298 H       1  UNL1        0.0000
     41 H          -4.8234    5.3326    9.8688 H       1  UNL1        0.0000
     42 H          -5.8103    5.1047   12.1100 H       1  UNL1        0.0000
     43 H          -7.4388    3.3049   12.5658 H       1  UNL1        0.0000
     44 H          -8.0691    1.7395   10.7654 H       1  UNL1        0.0000
     45 H          -7.0714    1.9709    8.5301 H       1  UNL1        0.0000
@<TRIPOS>BOND
     1    33     9    1
     2    32     8    1
     3     9     8   ar
     4     9    10   ar
     5    34    10    1
     6     8     7   ar
     7    10    11   ar
     8    39    17    1
     9    40    18    1
    10     7    31    1
    11     7     6   ar
    12    30     4    1
    13    11     6   ar
    14    11    35    1
    15    17    18   ar
    16    17    16   ar
    17    18    12   ar
    18     6    14    1
    19    27     3    1
    20    28     3    1
    21     4     3    1
    22     4    29    1
    23     4     5    1
    24     3     2    1
    25    38    16    1
    26    16    13   ar
    27    12    14    1
    28    12    15   ar
    29    14     5    1
    30    14    19    1
    31    13    15   ar
    32    13    36    1
    33    15    37    1
    34     2    25    1
    35     2    26    1
    36     2     1    1
    37    45    24    1
    38    19    24   ar
    39    19    20   ar
    40    24    23   ar
    41    41    20    1
    42    20    21   ar
    43    23    44    1
    44    23    22   ar
    45    21    22   ar
    46    21    42    1
    47    22    43    1
