@<TRIPOS>MOLECULE
1
 21 20 0 0 0
SMALL
GASTEIGER

@<TRIPOS>ATOM
      1 S          -2.8662    3.1286   13.5080 S.3     1  UNL1        0.0000
      2 C          -2.6525    4.3877   14.8023 C.3     1  UNL1        0.0000
      3 C          -1.1912    4.8251   14.8872 C.3     1  UNL1        0.0000
      4 O          -0.8715    5.3591   16.1359 O.3     1  UNL1        0.0000
      5 SI         -0.6210    4.5829   17.5549 Si      1  UNL1        0.0000
      6 C           0.3137    2.9377   17.2978 C.3     1  UNL1        0.0000
      7 C           0.4188    5.8408   18.5239 C.3     1  UNL1        0.0000
      8 C          -2.2476    4.2241   18.4944 C.3     1  UNL1        0.0000
      9 H          -3.3102    5.2151   14.5412 H       1  UNL1        0.0000
     10 H          -2.9676    3.9630   15.7541 H       1  UNL1        0.0000
     11 H          -0.5500    3.9559   14.6730 H       1  UNL1        0.0000
     12 H          -0.9833    5.5964   14.1400 H       1  UNL1        0.0000
     13 H           1.3501    3.1084   17.0216 H       1  UNL1        0.0000
     14 H          -0.1448    2.3741   16.4839 H       1  UNL1        0.0000
     15 H           0.3083    2.3149   18.1871 H       1  UNL1        0.0000
     16 H           1.3720    6.0314   18.0430 H       1  UNL1        0.0000
     17 H           0.6177    5.4841   19.5284 H       1  UNL1        0.0000
     18 H          -0.1015    6.7885   18.6071 H       1  UNL1        0.0000
     19 H          -2.7835    3.3708   18.0873 H       1  UNL1        0.0000
     20 H          -2.9156    5.0799   18.4513 H       1  UNL1        0.0000
     21 H          -2.0577    4.0150   19.5428 H       1  UNL1        0.0000
@<TRIPOS>BOND
     1     1     2    1
     2    12     3    1
     3     9     2    1
     4    11     3    1
     5     2     3    1
     6     2    10    1
     7     3     4    1
     8     4     5    1
     9    14     6    1
    10    13     6    1
    11     6     5    1
    12     6    15    1
    13     5     8    1
    14     5     7    1
    15    16     7    1
    16    19     8    1
    17    20     8    1
    18     8    21    1
    19     7    18    1
    20     7    17    1
