@<TRIPOS>MOLECULE
2
 41 40 0 0 0
SMALL
GASTEIGER

@<TRIPOS>ATOM
      1 SI          7.9141   -3.7017    3.4399 Si      1  UNL1        0.0000
      2 S           6.7276   -2.0107    3.9862 S.3     1  UNL1        0.0000
      3 C           8.6789   -3.3163    1.6731 C.3     1  UNL1        0.0000
      4 C           6.5965   -5.1464    3.4029 C.3     1  UNL1        0.0000
      5 C           9.2949   -3.9374    4.8117 C.3     1  UNL1        0.0000
      6 C           7.6696   -2.5251    0.8373 C.3     1  UNL1        0.0000
      7 H           7.4323   -1.5851    1.3425 H       1  UNL1        0.0000
      8 H           6.7447   -3.0693    0.6831 H       1  UNL1        0.0000
      9 H           8.0931   -2.2885   -0.1389 H       1  UNL1        0.0000
     10 C           9.9128   -2.4209    1.7856 C.3     1  UNL1        0.0000
     11 H          10.7452   -2.9303    2.2605 H       1  UNL1        0.0000
     12 H           9.6807   -1.5113    2.3553 H       1  UNL1        0.0000
     13 H          10.2396   -2.1140    0.7915 H       1  UNL1        0.0000
     14 C           9.0867   -4.5770    0.9091 C.3     1  UNL1        0.0000
     15 H           9.7951   -5.1706    1.4814 H       1  UNL1        0.0000
     16 H           9.5609   -4.3036   -0.0342 H       1  UNL1        0.0000
     17 H           8.2267   -5.1983    0.6773 H       1  UNL1        0.0000
     18 C           5.6821   -5.0964    4.6309 C.3     1  UNL1        0.0000
     19 H           5.2307   -4.1128    4.7260 H       1  UNL1        0.0000
     20 H           6.2176   -5.3179    5.5468 H       1  UNL1        0.0000
     21 H           4.8833   -5.8308    4.5262 H       1  UNL1        0.0000
     22 C           5.6790   -4.9993    2.1865 C.3     1  UNL1        0.0000
     23 H           6.2190   -5.1335    1.2543 H       1  UNL1        0.0000
     24 H           5.2070   -4.0200    2.1866 H       1  UNL1        0.0000
     25 H           4.8919   -5.7531    2.2220 H       1  UNL1        0.0000
     26 C           7.2555   -6.5229    3.3456 C.3     1  UNL1        0.0000
     27 H           7.9198   -6.6119    2.4909 H       1  UNL1        0.0000
     28 H           6.4926   -7.2976    3.2613 H       1  UNL1        0.0000
     29 H           7.8280   -6.7221    4.2475 H       1  UNL1        0.0000
     30 C           8.6557   -4.4272    6.1136 C.3     1  UNL1        0.0000
     31 H           8.2956   -5.4472    6.0171 H       1  UNL1        0.0000
     32 H           7.8223   -3.7881    6.3963 H       1  UNL1        0.0000
     33 H           9.3890   -4.4141    6.9215 H       1  UNL1        0.0000
     34 C           9.9673   -2.5991    5.1336 C.3     1  UNL1        0.0000
     35 H           9.2188   -1.8343    5.3663 H       1  UNL1        0.0000
     36 H          10.5805   -2.2350    4.3165 H       1  UNL1        0.0000
     37 H          10.6148   -2.7080    6.0041 H       1  UNL1        0.0000
     38 C          10.3759   -4.9417    4.4094 C.3     1  UNL1        0.0000
     39 H           9.9462   -5.9131    4.1809 H       1  UNL1        0.0000
     40 H          11.0859   -5.0714    5.2270 H       1  UNL1        0.0000
     41 H          10.9317   -4.6023    3.5401 H       1  UNL1        0.0000
@<TRIPOS>BOND
     1     9     6    1
     2    16    14    1
     3    17    14    1
     4     8     6    1
     5    13    10    1
     6     6     7    1
     7     6     3    1
     8    14    15    1
     9    14     3    1
    10    23    22    1
    11     3    10    1
    12     3     1    1
    13    10    11    1
    14    10    12    1
    15    22    24    1
    16    22    25    1
    17    22     4    1
    18    27    26    1
    19    28    26    1
    20    26     4    1
    21    26    29    1
    22     4     1    1
    23     4    18    1
    24     1     2    1
    25     1     5    1
    26    41    38    1
    27    39    38    1
    28    36    34    1
    29    38     5    1
    30    38    40    1
    31    21    18    1
    32    18    19    1
    33    18    20    1
    34     5    34    1
    35     5    30    1
    36    34    35    1
    37    34    37    1
    38    31    30    1
    39    30    32    1
    40    30    33    1
