@<TRIPOS>MOLECULE
2
 41 40 0 0 0
SMALL
GASTEIGER

@<TRIPOS>ATOM
      1 SI         10.3736    2.7122    2.4789 Si      1  UNL1        0.0000
      2 S           9.9648    0.9111    3.5427 S.3     1  UNL1        0.0000
      3 C          12.2310    3.0657    2.9897 C.3     1  UNL1        0.0000
      4 C           9.1438    4.1204    3.0612 C.3     1  UNL1        0.0000
      5 C          10.1545    2.2385    0.5912 C.3     1  UNL1        0.0000
      6 C          12.8935    4.0854    2.0642 C.3     1  UNL1        0.0000
      7 H          12.3348    5.0161    2.0277 H       1  UNL1        0.0000
      8 H          12.9789    3.6968    1.0530 H       1  UNL1        0.0000
      9 H          13.9004    4.3105    2.4178 H       1  UNL1        0.0000
     10 C          13.0726    1.7856    2.9746 C.3     1  UNL1        0.0000
     11 H          13.1854    1.3841    1.9746 H       1  UNL1        0.0000
     12 H          12.6145    1.0230    3.5980 H       1  UNL1        0.0000
     13 H          14.0688    1.9951    3.3650 H       1  UNL1        0.0000
     14 C          12.2990    3.5958    4.4243 C.3     1  UNL1        0.0000
     15 H          11.8291    4.5697    4.5203 H       1  UNL1        0.0000
     16 H          13.3398    3.7017    4.7323 H       1  UNL1        0.0000
     17 H          11.8157    2.9010    5.1072 H       1  UNL1        0.0000
     18 C           7.7864    4.0036    2.3650 C.3     1  UNL1        0.0000
     19 H           7.8605    4.2288    1.3048 H       1  UNL1        0.0000
     20 H           7.0867    4.7185    2.8018 H       1  UNL1        0.0000
     21 H           7.3833    3.0049    2.4931 H       1  UNL1        0.0000
     22 C           9.6788    5.5274    2.7912 C.3     1  UNL1        0.0000
     23 H           9.8962    5.6668    1.7349 H       1  UNL1        0.0000
     24 H          10.5832    5.7300    3.3570 H       1  UNL1        0.0000
     25 H           8.9346    6.2701    3.0824 H       1  UNL1        0.0000
     26 C           8.8699    3.9631    4.5594 C.3     1  UNL1        0.0000
     27 H           9.7674    4.0990    5.1531 H       1  UNL1        0.0000
     28 H           8.4783    2.9670    4.7591 H       1  UNL1        0.0000
     29 H           8.1335    4.6979    4.8876 H       1  UNL1        0.0000
     30 C          11.2566    1.2682    0.1605 C.3     1  UNL1        0.0000
     31 H          12.2257    1.7578    0.1341 H       1  UNL1        0.0000
     32 H          11.0528    0.8908   -0.8426 H       1  UNL1        0.0000
     33 H          11.3065    0.4209    0.8396 H       1  UNL1        0.0000
     34 C           8.8239    1.5080    0.3858 C.3     1  UNL1        0.0000
     35 H           7.9814    2.1849    0.4670 H       1  UNL1        0.0000
     36 H           8.7018    0.7176    1.1302 H       1  UNL1        0.0000
     37 H           8.7935    1.0513   -0.6040 H       1  UNL1        0.0000
     38 C          10.2011    3.4493   -0.3415 C.3     1  UNL1        0.0000
     39 H          11.1449    3.9799   -0.2493 H       1  UNL1        0.0000
     40 H           9.3975    4.1490   -0.1298 H       1  UNL1        0.0000
     41 H          10.0964    3.1257   -1.3778 H       1  UNL1        0.0000
@<TRIPOS>BOND
     1    41    38    1
     2    32    30    1
     3    37    34    1
     4    38    39    1
     5    38    40    1
     6    38     5    1
     7    31    30    1
     8    30     5    1
     9    30    33    1
    10    34    35    1
    11    34     5    1
    12    34    36    1
    13     5     1    1
    14     8     6    1
    15    19    18    1
    16    23    22    1
    17    11    10    1
    18     7     6    1
    19     6     9    1
    20     6     3    1
    21    18    21    1
    22    18    20    1
    23    18     4    1
    24     1     3    1
    25     1     4    1
    26     1     2    1
    27    22     4    1
    28    22    25    1
    29    22    24    1
    30    10     3    1
    31    10    13    1
    32    10    12    1
    33     3    14    1
    34     4    26    1
    35    14    15    1
    36    14    16    1
    37    14    17    1
    38    26    28    1
    39    26    29    1
    40    26    27    1
