@<TRIPOS>MOLECULE
1
 35 37 0 0 0
SMALL
GASTEIGER

@<TRIPOS>ATOM
      1 S          12.4535    0.5664    3.5397 S.3     1  UNL1        0.0000
      2 SI         11.1176    0.3340    1.9173 Si      1  UNL1        0.0000
      3 C          10.6454    1.9893    1.1160 C.ar    1  UNL1        0.0000
      4 C           9.4322    2.6036    1.4045 C.ar    1  UNL1        0.0000
      5 C           9.0820    3.8062    0.8165 C.ar    1  UNL1        0.0000
      6 C           9.9469    4.4208   -0.0741 C.ar    1  UNL1        0.0000
      7 C          11.1611    3.8243   -0.3694 C.ar    1  UNL1        0.0000
      8 C          11.5025    2.6213    0.2223 C.ar    1  UNL1        0.0000
      9 C          11.8322   -0.7852    0.5626 C.ar    1  UNL1        0.0000
     10 C          11.5069   -0.6162   -0.7792 C.ar    1  UNL1        0.0000
     11 C          12.0413   -1.4432   -1.7514 C.ar    1  UNL1        0.0000
     12 C          12.9122   -2.4593   -1.3954 C.ar    1  UNL1        0.0000
     13 C          13.2419   -2.6454   -0.0630 C.ar    1  UNL1        0.0000
     14 C          12.7040   -1.8146    0.9030 C.ar    1  UNL1        0.0000
     15 C           9.5243   -0.4452    2.5755 C.ar    1  UNL1        0.0000
     16 C           8.6477   -1.0741    1.6987 C.ar    1  UNL1        0.0000
     17 C           7.4583   -1.6171    2.1490 C.ar    1  UNL1        0.0000
     18 C           7.1257   -1.5380    3.4911 C.ar    1  UNL1        0.0000
     19 C           7.9910   -0.9188    4.3770 C.ar    1  UNL1        0.0000
     20 C           9.1794   -0.3781    3.9198 C.ar    1  UNL1        0.0000
     21 H           8.7496    2.1216    2.0905 H       1  UNL1        0.0000
     22 H           8.1288    4.2635    1.0451 H       1  UNL1        0.0000
     23 H           9.6731    5.3572   -0.5394 H       1  UNL1        0.0000
     24 H          11.8376    4.2957   -1.0695 H       1  UNL1        0.0000
     25 H          12.4438    2.1528   -0.0226 H       1  UNL1        0.0000
     26 H          10.8301    0.1775   -1.0655 H       1  UNL1        0.0000
     27 H          11.7796   -1.2946   -2.7899 H       1  UNL1        0.0000
     28 H          13.3324   -3.1039   -2.1543 H       1  UNL1        0.0000
     29 H          13.9197   -3.4382    0.2205 H       1  UNL1        0.0000
     30 H          12.9646   -1.9531    1.9427 H       1  UNL1        0.0000
     31 H           8.9041   -1.1420    0.6507 H       1  UNL1        0.0000
     32 H           6.7881   -2.1034    1.4539 H       1  UNL1        0.0000
     33 H           6.1962   -1.9611    3.8448 H       1  UNL1        0.0000
     34 H           7.7388   -0.8585    5.4262 H       1  UNL1        0.0000
     35 H           9.8616    0.0953    4.6103 H       1  UNL1        0.0000
@<TRIPOS>BOND
     1    27    11    1
     2    28    12    1
     3    11    12   ar
     4    11    10   ar
     5    12    13   ar
     6    24     7    1
     7    26    10    1
     8    10     9   ar
     9    23     6    1
    10     7     6   ar
    11     7     8   ar
    12     6     5   ar
    13    13    29    1
    14    13    14   ar
    15    25     8    1
    16     8     3   ar
    17     9    14   ar
    18     9     2    1
    19    31    16    1
    20     5    22    1
    21     5     4   ar
    22    14    30    1
    23     3     4   ar
    24     3     2    1
    25     4    21    1
    26    32    17    1
    27    16    17   ar
    28    16    15   ar
    29     2    15    1
    30     2     1    1
    31    17    18   ar
    32    15    20   ar
    33    18    33    1
    34    18    19   ar
    35    20    19   ar
    36    20    35    1
    37    19    34    1
