@<TRIPOS>MOLECULE
1
 45 48 0 0 0
SMALL
GASTEIGER

@<TRIPOS>ATOM
      1 S          17.3826    3.3002    9.2196 S.3     1  UNL1        0.0000
      2 SI         19.9901    2.5700   10.4475 Si      1  UNL1        0.0000
      3 C          21.7474    2.0358   10.9080 C.ar    1  UNL1        0.0000
      4 C          22.5804    2.8174   11.6958 C.ar    1  UNL1        0.0000
      5 C          23.8528    2.3909   12.0332 C.ar    1  UNL1        0.0000
      6 C          24.3133    1.1644   11.5866 C.ar    1  UNL1        0.0000
      7 C          23.4905    0.3657   10.8099 C.ar    1  UNL1        0.0000
      8 C          22.2203    0.8001   10.4802 C.ar    1  UNL1        0.0000
      9 C          18.8940    1.1754   11.1297 C.ar    1  UNL1        0.0000
     10 C          18.7340    0.9963   12.4997 C.ar    1  UNL1        0.0000
     11 C          17.9613   -0.0368   12.9990 C.ar    1  UNL1        0.0000
     12 C          17.3287   -0.9130   12.1327 C.ar    1  UNL1        0.0000
     13 C          17.4924   -0.7620   10.7664 C.ar    1  UNL1        0.0000
     14 C          18.2758    0.2670   10.2779 C.ar    1  UNL1        0.0000
     15 C          19.6419    4.2611   11.2312 C.ar    1  UNL1        0.0000
     16 C          18.6219    4.4691   12.1531 C.ar    1  UNL1        0.0000
     17 C          18.4282    5.7096   12.7340 C.ar    1  UNL1        0.0000
     18 C          19.2543    6.7697   12.3998 C.ar    1  UNL1        0.0000
     19 C          20.2594    6.5865   11.4649 C.ar    1  UNL1        0.0000
     20 C          20.4466    5.3435   10.8871 C.ar    1  UNL1        0.0000
     21 C          19.8595    2.6244    8.5622 C.ar    1  UNL1        0.0000
     22 C          20.8806    2.3329    7.6732 C.ar    1  UNL1        0.0000
     23 C          20.6476    2.2973    6.3075 C.ar    1  UNL1        0.0000
     24 C          19.3756    2.5400    5.8141 C.ar    1  UNL1        0.0000
     25 C          18.3431    2.8486    6.6764 C.ar    1  UNL1        0.0000
     26 C          18.5925    2.9094    8.0409 C.ar    1  UNL1        0.0000
     27 H          22.2274    3.7746   12.0537 H       1  UNL1        0.0000
     28 H          24.4872    3.0161   12.6462 H       1  UNL1        0.0000
     29 H          25.3077    0.8296   11.8458 H       1  UNL1        0.0000
     30 H          23.8407   -0.5970   10.4639 H       1  UNL1        0.0000
     31 H          21.5783    0.1680    9.8812 H       1  UNL1        0.0000
     32 H          19.2289    1.6722   13.1837 H       1  UNL1        0.0000
     33 H          17.8494   -0.1586   14.0678 H       1  UNL1        0.0000
     34 H          16.7159   -1.7147   12.5214 H       1  UNL1        0.0000
     35 H          17.0140   -1.4502   10.0827 H       1  UNL1        0.0000
     36 H          18.4181    0.3668    9.2095 H       1  UNL1        0.0000
     37 H          17.9592    3.6539   12.4102 H       1  UNL1        0.0000
     38 H          17.6285    5.8490   13.4480 H       1  UNL1        0.0000
     39 H          19.1134    7.7350   12.8662 H       1  UNL1        0.0000
     40 H          20.9012    7.4134   11.1902 H       1  UNL1        0.0000
     41 H          21.2315    5.2044   10.1550 H       1  UNL1        0.0000
     42 H          21.8693    2.1251    8.0592 H       1  UNL1        0.0000
     43 H          21.4557    2.0665    5.6280 H       1  UNL1        0.0000
     44 H          19.1812    2.4897    4.7518 H       1  UNL1        0.0000
     45 H          17.3447    3.0403    6.2942 H       1  UNL1        0.0000
@<TRIPOS>BOND
     1    44    24    1
     2    43    23    1
     3    24    23   ar
     4    24    25   ar
     5    45    25    1
     6    23    22   ar
     7    25    26   ar
     8    22    42    1
     9    22    21   ar
    10    26    21   ar
    11    26     1    1
    12    21     2    1
    13    36    14    1
    14    31     8    1
    15    35    13    1
    16    41    20    1
    17    14    13   ar
    18    14     9   ar
    19     2     3    1
    20     2     9    1
    21     2    15    1
    22    30     7    1
    23     8     7   ar
    24     8     3   ar
    25    13    12   ar
    26     7     6   ar
    27    20    15   ar
    28    20    19   ar
    29     3     4   ar
    30     9    10   ar
    31    40    19    1
    32    15    16   ar
    33    19    18   ar
    34     6    29    1
    35     6     5   ar
    36     4     5   ar
    37     4    27    1
    38     5    28    1
    39    12    34    1
    40    12    11   ar
    41    16    37    1
    42    16    17   ar
    43    18    17   ar
    44    18    39    1
    45    10    11   ar
    46    10    32    1
    47    17    38    1
    48    11    33    1
