@<TRIPOS>MOLECULE
1,2,3,4,6,8,10,12,13,15,17,19
 38 39 0 0 0
SMALL
GASTEIGER

@<TRIPOS>ATOM
      1 P           0.5741    1.8800    0.8419 P.3     1  UNL1        0.0000
      2 P           2.6344    1.9489    1.3515 P.3     1  UNL1        0.0000
      3 C           1.6457    3.8460   -1.1817 C.3     1  UNL1        0.0000
      4 C           2.9742    4.1106   -0.7335 C.2     1  UNL1        0.0000
      5 H           3.8193    3.4519   -0.8889 H       1  UNL1        0.0000
      6 C           3.0381    5.4125   -0.2204 C.2     1  UNL1        0.0000
      7 H           3.9303    5.9396    0.0802 H       1  UNL1        0.0000
      8 C           1.7327    5.9780   -0.3280 C.3     1  UNL1        0.0000
      9 H           1.4988    7.0311   -0.2140 H       1  UNL1        0.0000
     10 C           0.8742    5.0055   -0.9196 C.3     1  UNL1        0.0000
     11 H          -0.1343    5.1805   -1.2625 H       1  UNL1        0.0000
     12 C           1.4299    3.8070    3.4030 C.3     1  UNL1        0.0000
     13 C           2.1156    5.0223    3.1562 C.3     1  UNL1        0.0000
     14 H           3.1094    5.2646    3.5010 H       1  UNL1        0.0000
     15 C           1.1887    5.9385    2.5779 C.3     1  UNL1        0.0000
     16 H           1.3461    7.0071    2.4784 H       1  UNL1        0.0000
     17 C          -0.0728    5.2821    2.4629 C.2     1  UNL1        0.0000
     18 H          -1.0010    5.7477    2.1699 H       1  UNL1        0.0000
     19 C           0.0853    3.9813    2.9583 C.2     1  UNL1        0.0000
     20 H          -0.7098    3.2612    3.1050 H       1  UNL1        0.0000
     21 SI          0.9618    2.0839   -1.3743 Si      1  UNL1        0.0000
     22 C           2.2905    0.9220   -2.1137 C.3     1  UNL1        0.0000
     23 H           2.6753    1.3012   -3.0555 H       1  UNL1        0.0000
     24 H           1.8710   -0.0625   -2.2914 H       1  UNL1        0.0000
     25 H           3.1179    0.8109   -1.4175 H       1  UNL1        0.0000
     26 C          -0.6473    2.0882   -2.3941 C.3     1  UNL1        0.0000
     27 H          -1.4137    2.6952   -1.9270 H       1  UNL1        0.0000
     28 H          -1.0300    1.0791   -2.4818 H       1  UNL1        0.0000
     29 H          -0.4688    2.4681   -3.3928 H       1  UNL1        0.0000
     30 SI          2.2368    2.0953    3.5708 Si      1  UNL1        0.0000
     31 C           0.9923    0.8367    4.2991 C.3     1  UNL1        0.0000
     32 H           0.5510    1.1986    5.2228 H       1  UNL1        0.0000
     33 H           1.4883   -0.1052    4.5076 H       1  UNL1        0.0000
     34 H           0.1962    0.6441    3.5844 H       1  UNL1        0.0000
     35 C           3.8459    2.1978    4.5853 C.3     1  UNL1        0.0000
     36 H           4.5650    2.8650    4.1251 H       1  UNL1        0.0000
     37 H           4.2996    1.2171    4.6548 H       1  UNL1        0.0000
     38 H           3.6459    2.5478    5.5907 H       1  UNL1        0.0000
@<TRIPOS>BOND
     1    29    26    1
     2    23    22    1
     3    28    26    1
     4    26    27    1
     5    26    21    1
     6    24    22    1
     7    22    25    1
     8    22    21    1
     9    21     3    1
    10    21     1    1
    11    11    10    1
    12     3    10    1
    13     3     4    1
    14    10     8    1
    15     5     4    1
    16     4     6    2
    17     8     6    1
    18     8     9    1
    19     6     7    1
    20     1     2    1
    21     2    30    1
    22    18    17    1
    23    17    15    1
    24    17    19    2
    25    16    15    1
    26    15    13    1
    27    19    20    1
    28    19    12    1
    29    13    12    1
    30    13    14    1
    31    12    30    1
    32    30    31    1
    33    30    35    1
    34    34    31    1
    35    36    35    1
    36    31    33    1
    37    31    32    1
    38    35    37    1
    39    35    38    1
