@<TRIPOS>MOLECULE
1,2,3
 84 84 0 0 0
SMALL
GASTEIGER

@<TRIPOS>ATOM
      1 P           0.7500    1.3887    6.2172 P.3     1  UNL1        0.0000
      2 P           3.9533    1.0159    6.2225 P.3     1  UNL1        0.0000
      3 P           1.8446   -1.5894    5.6553 P.3     1  UNL1        0.0000
      4 C           1.2520    1.1055    7.9468 C.3     1  UNL1        0.0000
      5 C           3.7546    0.0474    7.7429 C.3     1  UNL1        0.0000
      6 C           1.5549   -1.5105    7.4602 C.3     1  UNL1        0.0000
      7 C           2.2805   -0.5354    9.8236 C.ar    1  UNL1        0.0000
      8 C           1.7358    0.2694   10.8228 C.ar    1  UNL1        0.0000
      9 C           1.8618   -0.0310   12.1687 C.ar    1  UNL1        0.0000
     10 C           2.5516   -1.1605   12.5689 C.ar    1  UNL1        0.0000
     11 C           3.1183   -1.9749   11.6033 C.ar    1  UNL1        0.0000
     12 C           2.9829   -1.6592   10.2646 C.ar    1  UNL1        0.0000
     13 C          -0.9896    0.6512    6.2281 C.3     1  UNL1        0.0000
     14 C          -1.6848    0.6460    4.8672 C.3     1  UNL1        0.0000
     15 C          -1.9698    1.1585    7.2858 C.3     1  UNL1        0.0000
     16 C           0.4410    3.2782    6.1219 C.3     1  UNL1        0.0000
     17 C           0.2999    3.9564    7.4871 C.3     1  UNL1        0.0000
     18 C          -0.7210    3.7510    5.2465 C.3     1  UNL1        0.0000
     19 C           5.7772    0.7175    5.8202 C.3     1  UNL1        0.0000
     20 C           6.7843    1.1307    6.8911 C.3     1  UNL1        0.0000
     21 C           5.9842   -0.7649    5.5223 C.3     1  UNL1        0.0000
     22 C           3.9599    2.8156    6.8023 C.3     1  UNL1        0.0000
     23 C           4.3464    3.0760    8.2587 C.3     1  UNL1        0.0000
     24 C           4.7329    3.7650    5.8872 C.3     1  UNL1        0.0000
     25 C           3.1012   -3.0147    5.6317 C.3     1  UNL1        0.0000
     26 C           3.7762   -3.3070    4.2932 C.3     1  UNL1        0.0000
     27 C           2.6199   -4.3448    6.2142 C.3     1  UNL1        0.0000
     28 C           0.2553   -2.3578    4.9383 C.3     1  UNL1        0.0000
     29 C          -0.5950   -3.1974    5.8931 C.3     1  UNL1        0.0000
     30 C           0.4378   -3.1504    3.6446 C.3     1  UNL1        0.0000
     31 B           2.2012   -0.2074    8.2329 B       1  UNL1        0.0000
     32 H           5.0916   -1.1814    5.0711 H       1  UNL1        0.0000
     33 H           6.8296   -0.9167    4.8518 H       1  UNL1        0.0000
     34 H           6.1887   -1.3113    6.4401 H       1  UNL1        0.0000
     35 H           6.5373    0.6792    7.8487 H       1  UNL1        0.0000
     36 H           7.7738    0.7765    6.5991 H       1  UNL1        0.0000
     37 H           6.8482    2.2066    7.0163 H       1  UNL1        0.0000
     38 H           5.8051    3.5995    5.9391 H       1  UNL1        0.0000
     39 H           4.4210    3.6620    4.8543 H       1  UNL1        0.0000
     40 H           4.5444    4.7949    6.1927 H       1  UNL1        0.0000
     41 H           3.7364    2.4972    8.9458 H       1  UNL1        0.0000
     42 H           5.3889    2.8481    8.4542 H       1  UNL1        0.0000
     43 H           4.1916    4.1327    8.4811 H       1  UNL1        0.0000
     44 H          -0.6156    4.8224    5.0712 H       1  UNL1        0.0000
     45 H          -0.7461    3.2670    4.2769 H       1  UNL1        0.0000
     46 H          -1.6775    3.5948    5.7363 H       1  UNL1        0.0000
     47 H           1.2249    3.9370    8.0554 H       1  UNL1        0.0000
     48 H           0.0309    5.0028    7.3409 H       1  UNL1        0.0000
     49 H          -0.4794    3.4890    8.0819 H       1  UNL1        0.0000
     50 H          -1.5732    1.0664    8.2930 H       1  UNL1        0.0000
     51 H          -2.2532    2.1934    7.1189 H       1  UNL1        0.0000
     52 H          -2.8771    0.5558    7.2370 H       1  UNL1        0.0000
     53 H          -0.5388   -3.3229    3.1898 H       1  UNL1        0.0000
     54 H           1.0469   -2.6202    2.9218 H       1  UNL1        0.0000
     55 H           0.8829   -4.1231    3.8330 H       1  UNL1        0.0000
     56 H          -0.9042   -2.6425    6.7737 H       1  UNL1        0.0000
     57 H          -1.5001   -3.5137    5.3735 H       1  UNL1        0.0000
     58 H          -0.0706   -4.0887    6.2210 H       1  UNL1        0.0000
     59 H           3.0972   -3.8007    3.6042 H       1  UNL1        0.0000
     60 H           4.1531   -2.4072    3.8211 H       1  UNL1        0.0000
     61 H           4.6218   -3.9756    4.4568 H       1  UNL1        0.0000
     62 H           2.0851   -4.2212    7.1513 H       1  UNL1        0.0000
     63 H           1.9789   -4.8749    5.5150 H       1  UNL1        0.0000
     64 H           3.4851   -4.9790    6.4100 H       1  UNL1        0.0000
     65 H          -2.2096    1.5789    4.6852 H       1  UNL1        0.0000
     66 H          -0.9722    0.4882    4.0647 H       1  UNL1        0.0000
     67 H          -2.4251   -0.1539    4.8332 H       1  UNL1        0.0000
     68 H           1.1967    1.1675   10.5540 H       1  UNL1        0.0000
     69 H           1.4207    0.6223   12.9109 H       1  UNL1        0.0000
     70 H           2.6513   -1.4011   13.6186 H       1  UNL1        0.0000
     71 H           3.6692   -2.8587   11.8992 H       1  UNL1        0.0000
     72 H           3.4485   -2.3089    9.5348 H       1  UNL1        0.0000
     73 H           0.4829   -1.5013    7.6471 H       1  UNL1        0.0000
     74 H           1.9346   -2.4308    7.9016 H       1  UNL1        0.0000
     75 H           1.7865    1.9901    8.2796 H       1  UNL1        0.0000
     76 H           0.3430    1.0394    8.5442 H       1  UNL1        0.0000
     77 H           4.2064   -0.9206    7.5187 H       1  UNL1        0.0000
     78 H           4.3596    0.4936    8.5341 H       1  UNL1        0.0000
     79 H           2.9039    3.0753    6.7022 H       1  UNL1        0.0000
     80 H           1.3523    3.6594    5.6485 H       1  UNL1        0.0000
     81 H          -0.3206   -1.4673    4.6772 H       1  UNL1        0.0000
     82 H           3.8675   -2.6232    6.3115 H       1  UNL1        0.0000
     83 H          -0.7575   -0.3860    6.4842 H       1  UNL1        0.0000
     84 H           5.9824    1.2922    4.9111 H       1  UNL1        0.0000
@<TRIPOS>BOND
     1    54    30    1
     2    53    30    1
     3    59    26    1
     4    30    55    1
     5    30    28    1
     6    60    26    1
     7    66    14    1
     8    45    18    1
     9    26    61    1
    10    26    25    1
    11    81    28    1
    12    65    14    1
    13    67    14    1
    14    33    21    1
    15    39    24    1
    16    14    13    1
    17    84    19    1
    18    28     3    1
    19    28    29    1
    20    32    21    1
    21    44    18    1
    22    18    46    1
    23    18    16    1
    24    57    29    1
    25    63    27    1
    26    21    19    1
    27    21    34    1
    28    25     3    1
    29    25    27    1
    30    25    82    1
    31    80    16    1
    32     3     6    1
    33    19     2    1
    34    19    20    1
    35    24    38    1
    36    24    40    1
    37    24    22    1
    38    29    58    1
    39    29    56    1
    40    16     1    1
    41    16    17    1
    42    27    64    1
    43    27    62    1
    44     1    13    1
    45     1     4    1
    46     2    22    1
    47     2     5    1
    48    13    83    1
    49    13    15    1
    50    36    20    1
    51    79    22    1
    52    22    23    1
    53    20    37    1
    54    20    35    1
    55    51    15    1
    56    52    15    1
    57    15    50    1
    58    48    17    1
    59     6    73    1
    60     6    74    1
    61     6    31    1
    62    17    47    1
    63    17    49    1
    64    77     5    1
    65     5    31    1
    66     5    78    1
    67     4    31    1
    68     4    75    1
    69     4    76    1
    70    31     7    1
    71    23    42    1
    72    23    43    1
    73    23    41    1
    74    72    12    1
    75     7    12   ar
    76     7     8   ar
    77    12    11   ar
    78    68     8    1
    79     8     9   ar
    80    11    71    1
    81    11    10   ar
    82     9    10   ar
    83     9    69    1
    84    10    70    1
