@<TRIPOS>MOLECULE
1,2,3
 84 84 0 0 0
SMALL
GASTEIGER

@<TRIPOS>ATOM
      1 P           5.0851    4.4928   18.2285 P.3     1  UNL1        0.0000
      2 P           7.5726    6.6348   18.7081 P.3     1  UNL1        0.0000
      3 P           5.4232    7.0624   16.4303 P.3     1  UNL1        0.0000
      4 C           5.3150    2.8796   19.2045 C.3     1  UNL1        0.0000
      5 H           6.0094    3.1947   19.9942 H       1  UNL1        0.0000
      6 C           4.4636    5.5802   19.5611 C.3     1  UNL1        0.0000
      7 H           3.4000    5.3815   19.6951 H       1  UNL1        0.0000
      8 H           4.9473    5.2663   20.4902 H       1  UNL1        0.0000
      9 C           6.2931    7.6035   19.5720 C.3     1  UNL1        0.0000
     10 H           6.5309    7.5317   20.6377 H       1  UNL1        0.0000
     11 H           6.4304    8.6474   19.2817 H       1  UNL1        0.0000
     12 C           3.7249    8.0304   20.2795 C.ar    1  UNL1        0.0000
     13 C           4.1577    8.9415   21.2416 C.ar    1  UNL1        0.0000
     14 H           5.2153    9.1234   21.3700 H       1  UNL1        0.0000
     15 C           7.9592    5.3170   20.0073 C.3     1  UNL1        0.0000
     16 H           6.9462    5.0372   20.3127 H       1  UNL1        0.0000
     17 C           8.7078    5.7242   21.2728 C.3     1  UNL1        0.0000
     18 H           9.7559    5.9387   21.0792 H       1  UNL1        0.0000
     19 H           8.6653    4.9043   21.9905 H       1  UNL1        0.0000
     20 H           8.2510    6.5936   21.7405 H       1  UNL1        0.0000
     21 C           3.5928    4.2164   17.1113 C.3     1  UNL1        0.0000
     22 H           3.6650    5.1020   16.4697 H       1  UNL1        0.0000
     23 C           4.2569    7.5332   17.7456 C.3     1  UNL1        0.0000
     24 H           4.0137    8.5889   17.6226 H       1  UNL1        0.0000
     25 H           3.3371    6.9815   17.5520 H       1  UNL1        0.0000
     26 C           4.4119    7.1117   14.8178 C.3     1  UNL1        0.0000
     27 H           4.7722    8.0074   14.3042 H       1  UNL1        0.0000
     28 C           6.4346    8.6212   16.1885 C.3     1  UNL1        0.0000
     29 H           7.1765    8.5154   16.9810 H       1  UNL1        0.0000
     30 C           2.3413    7.8732   20.1755 C.ar    1  UNL1        0.0000
     31 H           1.9403    7.1909   19.4371 H       1  UNL1        0.0000
     32 C           8.5990    4.0859   19.3695 C.3     1  UNL1        0.0000
     33 H           8.0777    3.8469   18.4372 H       1  UNL1        0.0000
     34 H           8.5301    3.2249   20.0345 H       1  UNL1        0.0000
     35 H           9.6516    4.2418   19.1435 H       1  UNL1        0.0000
     36 C           1.4488    8.5613   20.9757 C.ar    1  UNL1        0.0000
     37 H           0.3840    8.4051   20.8585 H       1  UNL1        0.0000
     38 C           4.0588    2.3580   19.8958 C.3     1  UNL1        0.0000
     39 H           3.5239    3.1576   20.4009 H       1  UNL1        0.0000
     40 H           4.3365    1.6132   20.6425 H       1  UNL1        0.0000
     41 H           3.3918    1.8764   19.1851 H       1  UNL1        0.0000
     42 C           1.9149    9.4518   21.9271 C.ar    1  UNL1        0.0000
     43 H           1.2241    9.9933   22.5588 H       1  UNL1        0.0000
     44 C           9.1031    7.7405   18.9408 C.3     1  UNL1        0.0000
     45 H           9.1044    7.8854   20.0287 H       1  UNL1        0.0000
     46 C           5.9933    1.7439   18.4429 C.3     1  UNL1        0.0000
     47 H           5.3053    1.2531   17.7609 H       1  UNL1        0.0000
     48 H           6.3540    0.9924   19.1460 H       1  UNL1        0.0000
     49 H           6.8477    2.1005   17.8724 H       1  UNL1        0.0000
     50 C           4.7655    5.9079   13.9497 C.3     1  UNL1        0.0000
     51 H           5.8439    5.8215   13.8483 H       1  UNL1        0.0000
     52 H           4.3336    6.0128   12.9546 H       1  UNL1        0.0000
     53 H           4.3936    4.9838   14.3830 H       1  UNL1        0.0000
     54 C           2.1875    4.1966   17.7043 C.3     1  UNL1        0.0000
     55 H           2.0417    3.3741   18.3970 H       1  UNL1        0.0000
     56 H           1.4667    4.0807   16.8935 H       1  UNL1        0.0000
     57 H           1.9563    5.1256   18.2181 H       1  UNL1        0.0000
     58 C           9.0661    9.1320   18.3151 C.3     1  UNL1        0.0000
     59 H           9.1769    9.0841   17.2345 H       1  UNL1        0.0000
     60 H           9.9030    9.7129   18.7050 H       1  UNL1        0.0000
     61 H           8.1543    9.6707   18.5600 H       1  UNL1        0.0000
     62 C           3.2790    9.6395   22.0526 C.ar    1  UNL1        0.0000
     63 H           3.6614   10.3359   22.7880 H       1  UNL1        0.0000
     64 C           3.8154    3.0035   16.2145 C.3     1  UNL1        0.0000
     65 H           4.8441    2.9898   15.8607 H       1  UNL1        0.0000
     66 H           3.1532    3.0422   15.3487 H       1  UNL1        0.0000
     67 H           3.6042    2.0778   16.7441 H       1  UNL1        0.0000
     68 C           7.1634    8.5988   14.8474 C.3     1  UNL1        0.0000
     69 H           7.3959    7.5788   14.5612 H       1  UNL1        0.0000
     70 H           8.0932    9.1617   14.9043 H       1  UNL1        0.0000
     71 H           6.5631    9.0494   14.0602 H       1  UNL1        0.0000
     72 C           5.7087    9.9518   16.3625 C.3     1  UNL1        0.0000
     73 H           4.8248   10.0050   15.7288 H       1  UNL1        0.0000
     74 H           6.3772   10.7633   16.0754 H       1  UNL1        0.0000
     75 H           5.4094   10.1166   17.3939 H       1  UNL1        0.0000
     76 C          10.4163    7.0774   18.5323 C.3     1  UNL1        0.0000
     77 H          10.5099    6.0702   18.9242 H       1  UNL1        0.0000
     78 H          11.2542    7.6622   18.9133 H       1  UNL1        0.0000
     79 H          10.5054    7.0358   17.4506 H       1  UNL1        0.0000
     80 B           4.7160    7.1925   19.2996 B       1  UNL1        0.0000
     81 C           2.9004    7.2658   14.9588 C.3     1  UNL1        0.0000
     82 H           2.4324    6.3849   15.3914 H       1  UNL1        0.0000
     83 H           2.4662    7.4148   13.9695 H       1  UNL1        0.0000
     84 H           2.6477    8.1283   15.5701 H       1  UNL1        0.0000
@<TRIPOS>BOND
     1    52    50    1
     2    51    50    1
     3    50    53    1
     4    50    26    1
     5    83    81    1
     6    71    68    1
     7    27    26    1
     8    69    68    1
     9    26    81    1
    10    26     3    1
    11    68    70    1
    12    68    28    1
    13    81    82    1
    14    81    84    1
    15    66    64    1
    16    73    72    1
    17    65    64    1
    18    74    72    1
    19    28    72    1
    20    28     3    1
    21    28    29    1
    22    64    67    1
    23    64    21    1
    24    72    75    1
    25     3    23    1
    26    22    21    1
    27    56    54    1
    28    21    54    1
    29    21     1    1
    30    59    58    1
    31    79    76    1
    32    25    23    1
    33    24    23    1
    34    54    57    1
    35    54    55    1
    36    23    80    1
    37    47    46    1
    38    49    46    1
    39     1     4    1
    40     1     6    1
    41    58    61    1
    42    58    60    1
    43    58    44    1
    44    33    32    1
    45    46    48    1
    46    46     4    1
    47    76    78    1
    48    76    77    1
    49    76    44    1
    50     2    44    1
    51     2     9    1
    52     2    15    1
    53    44    45    1
    54    35    32    1
    55    41    38    1
    56     4    38    1
    57     4     5    1
    58    11     9    1
    59    80     6    1
    60    80     9    1
    61    80    12    1
    62    32    15    1
    63    32    34    1
    64    31    30    1
    65     6     7    1
    66     6     8    1
    67     9    10    1
    68    38    39    1
    69    38    40    1
    70    15    16    1
    71    15    17    1
    72    30    12   ar
    73    30    36   ar
    74    12    13   ar
    75    37    36    1
    76    36    42   ar
    77    18    17    1
    78    13    14    1
    79    13    62   ar
    80    17    20    1
    81    17    19    1
    82    42    62   ar
    83    42    43    1
    84    62    63    1
