@<TRIPOS>MOLECULE
9,21,33
 41 40 0 0 0
SMALL
GASTEIGER

@<TRIPOS>ATOM
      1 SI          5.3252   15.1030   16.2039 Si      1  UNL1        0.0000
      2 C           4.2554   16.0593   17.4517 C.3     1  UNL1        0.0000
      3 H           4.6963   16.0353   18.4395 H       1  UNL1        0.0000
      4 H           3.2631   15.6330   17.5222 H       1  UNL1        0.0000
      5 H           4.1499   17.0963   17.1616 H       1  UNL1        0.0000
      6 C           5.5961   13.3278   16.8224 C.3     1  UNL1        0.0000
      7 H           6.4357   13.3210   17.5212 H       1  UNL1        0.0000
      8 H           4.7256   12.9064   17.3309 H       1  UNL1        0.0000
      9 P           6.0618   12.2228   15.4364 P.3     1  UNL1        0.0000
     10 C           6.6592   10.8138   16.4390 C.3     1  UNL1        0.0000
     11 H           7.6277   11.0714   16.8676 H       1  UNL1        0.0000
     12 H           6.7860    9.9386   15.8033 H       1  UNL1        0.0000
     13 H           5.9504   10.5854   17.2376 H       1  UNL1        0.0000
     14 C           4.4019   11.5630   15.0317 C.3     1  UNL1        0.0000
     15 H           4.5038   10.7888   14.2726 H       1  UNL1        0.0000
     16 H           3.7744   12.3596   14.6375 H       1  UNL1        0.0000
     17 H           3.9356   11.1384   15.9229 H       1  UNL1        0.0000
     18 C           4.4878   15.1300   14.4968 C.3     1  UNL1        0.0000
     19 H           3.6123   14.4787   14.4953 H       1  UNL1        0.0000
     20 H           4.1563   16.1329   14.2162 H       1  UNL1        0.0000
     21 P           5.6526   14.5195   13.2058 P.3     1  UNL1        0.0000
     22 C           4.4273   13.8553   12.0208 C.3     1  UNL1        0.0000
     23 H           3.5703   14.5250   11.9182 H       1  UNL1        0.0000
     24 H           4.0987   12.8786   12.3780 H       1  UNL1        0.0000
     25 H           4.9076   13.7218   11.0520 H       1  UNL1        0.0000
     26 C           6.0425   16.1046   12.3813 C.3     1  UNL1        0.0000
     27 H           6.7742   15.9226   11.5937 H       1  UNL1        0.0000
     28 H           6.4830   16.7853   13.1100 H       1  UNL1        0.0000
     29 H           5.1439   16.5538   11.9541 H       1  UNL1        0.0000
     30 C           7.0382   15.9024   16.0375 C.3     1  UNL1        0.0000
     31 H           6.9655   16.7826   15.3944 H       1  UNL1        0.0000
     32 H           7.4519   16.2201   16.9969 H       1  UNL1        0.0000
     33 P           8.2280   14.7511   15.2192 P.3     1  UNL1        0.0000
     34 C           9.3219   16.0475   14.5285 C.3     1  UNL1        0.0000
     35 H           9.5318   16.8000   15.2916 H       1  UNL1        0.0000
     36 H           8.8165   16.5102   13.6803 H       1  UNL1        0.0000
     37 H          10.2576   15.6246   14.1687 H       1  UNL1        0.0000
     38 C           9.2392   14.2658   16.6684 C.3     1  UNL1        0.0000
     39 H          10.1332   13.7625   16.2980 H       1  UNL1        0.0000
     40 H           8.6761   13.5647   17.2838 H       1  UNL1        0.0000
     41 H           9.5301   15.1332   17.2639 H       1  UNL1        0.0000
@<TRIPOS>BOND
     1    25    22    1
     2    27    26    1
     3    23    22    1
     4    29    26    1
     5    22    24    1
     6    22    21    1
     7    26    28    1
     8    26    21    1
     9    21    18    1
    10    36    34    1
    11    37    34    1
    12    20    18    1
    13    15    14    1
    14    19    18    1
    15    18     1    1
    16    34    33    1
    17    34    35    1
    18    16    14    1
    19    14     9    1
    20    14    17    1
    21    33    30    1
    22    33    38    1
    23    31    30    1
    24     9    10    1
    25     9     6    1
    26    12    10    1
    27    30     1    1
    28    30    32    1
    29     1     6    1
    30     1     2    1
    31    39    38    1
    32    10    11    1
    33    10    13    1
    34    38    41    1
    35    38    40    1
    36     6     8    1
    37     6     7    1
    38     5     2    1
    39     2     4    1
    40     2     3    1
