@<TRIPOS>MOLECULE
1,2,3
 83 88 0 0 0
SMALL
GASTEIGER

@<TRIPOS>ATOM
      1 P           9.3757    9.2497    9.6593 P.3     1  UNL1        0.0000
      2 P          10.2744    7.9826    6.7767 P.3     1  UNL1        0.0000
      3 P          11.3578    6.6387    9.5639 P.3     1  UNL1        0.0000
      4 SI          8.4435    6.5154    8.7099 Si      1  UNL1        0.0000
      5 C           6.9327    5.3640    8.7425 C.3     1  UNL1        0.0000
      6 H           7.2120    4.3490    8.4929 H       1  UNL1        0.0000
      7 H           6.1831    5.6856    8.0317 H       1  UNL1        0.0000
      8 H           6.4752    5.3501    9.7228 H       1  UNL1        0.0000
      9 C           7.9079    8.3130    9.0573 C.3     1  UNL1        0.0000
     10 H           7.6167    8.7680    8.1076 H       1  UNL1        0.0000
     11 H           7.0799    8.3947    9.7616 H       1  UNL1        0.0000
     12 C           9.2835    6.4457    6.9985 C.3     1  UNL1        0.0000
     13 H           9.9942    5.6158    7.0042 H       1  UNL1        0.0000
     14 H           8.5841    6.3112    6.1733 H       1  UNL1        0.0000
     15 C           9.7038    5.9816   10.0388 C.3     1  UNL1        0.0000
     16 H           9.4326    6.4708   10.9773 H       1  UNL1        0.0000
     17 H           9.7442    4.9037   10.1962 H       1  UNL1        0.0000
     18 C           8.7315   10.9693    9.6818 C.ar    1  UNL1        0.0000
     19 C           7.5694   11.4183    9.0670 C.ar    1  UNL1        0.0000
     20 H           6.9379   10.7386    8.5144 H       1  UNL1        0.0000
     21 C           7.2082   12.7523    9.1522 C.ar    1  UNL1        0.0000
     22 H           6.3008   13.0900    8.6710 H       1  UNL1        0.0000
     23 C           7.9977   13.6518    9.8468 C.ar    1  UNL1        0.0000
     24 H           7.7122   14.6920    9.9058 H       1  UNL1        0.0000
     25 C           9.1546   13.2113   10.4701 C.ar    1  UNL1        0.0000
     26 H           9.7728   13.9068   11.0199 H       1  UNL1        0.0000
     27 C           9.5138   11.8809   10.3878 C.ar    1  UNL1        0.0000
     28 H          10.4089   11.5238   10.8817 H       1  UNL1        0.0000
     29 C           9.1983    9.0388   11.4765 C.ar    1  UNL1        0.0000
     30 C           7.9942    9.3017   12.1254 C.ar    1  UNL1        0.0000
     31 H           7.1280    9.6149   11.5584 H       1  UNL1        0.0000
     32 C           7.9058    9.1862   13.4992 C.ar    1  UNL1        0.0000
     33 H           6.9669    9.3870   13.9955 H       1  UNL1        0.0000
     34 C           9.0187    8.8260   14.2442 C.ar    1  UNL1        0.0000
     35 H           8.9444    8.7412   15.3187 H       1  UNL1        0.0000
     36 C          10.2250    8.5897   13.6089 C.ar    1  UNL1        0.0000
     37 H          11.1013    8.3219   14.1817 H       1  UNL1        0.0000
     38 C          10.3111    8.6991   12.2319 C.ar    1  UNL1        0.0000
     39 H          11.2502    8.5225   11.7229 H       1  UNL1        0.0000
     40 C           9.0510    9.0677    5.9373 C.ar    1  UNL1        0.0000
     41 C           8.3278    8.6307    4.8301 C.ar    1  UNL1        0.0000
     42 H           8.4572    7.6230    4.4588 H       1  UNL1        0.0000
     43 C           7.4585    9.4891    4.1850 C.ar    1  UNL1        0.0000
     44 H           6.8970    9.1414    3.3295 H       1  UNL1        0.0000
     45 C           7.3133   10.7971    4.6223 C.ar    1  UNL1        0.0000
     46 H           6.6357   11.4651    4.1107 H       1  UNL1        0.0000
     47 C           8.0488   11.2461    5.7050 C.ar    1  UNL1        0.0000
     48 H           7.9530   12.2674    6.0451 H       1  UNL1        0.0000
     49 C           8.9139   10.3835    6.3552 C.ar    1  UNL1        0.0000
     50 H           9.4988   10.7237    7.2002 H       1  UNL1        0.0000
     51 C          11.1821    7.6164    5.2229 C.ar    1  UNL1        0.0000
     52 C          11.7855    8.7183    4.6203 C.ar    1  UNL1        0.0000
     53 H          11.6644    9.6919    5.0786 H       1  UNL1        0.0000
     54 C          12.5142    8.5808    3.4559 C.ar    1  UNL1        0.0000
     55 H          12.9774    9.4450    3.0012 H       1  UNL1        0.0000
     56 C          12.6480    7.3315    2.8711 C.ar    1  UNL1        0.0000
     57 H          13.2187    7.2170    1.9610 H       1  UNL1        0.0000
     58 C          12.0439    6.2324    3.4560 C.ar    1  UNL1        0.0000
     59 H          12.1394    5.2573    2.9991 H       1  UNL1        0.0000
     60 C          11.3147    6.3693    4.6251 C.ar    1  UNL1        0.0000
     61 H          10.8575    5.4947    5.0635 H       1  UNL1        0.0000
     62 C          12.0301    5.2222    8.6048 C.ar    1  UNL1        0.0000
     63 C          12.6586    5.4622    7.3915 C.ar    1  UNL1        0.0000
     64 H          12.6974    6.4778    7.0185 H       1  UNL1        0.0000
     65 C          13.2271    4.4257    6.6719 C.ar    1  UNL1        0.0000
     66 H          13.7109    4.6304    5.7274 H       1  UNL1        0.0000
     67 C          13.1751    3.1345    7.1664 C.ar    1  UNL1        0.0000
     68 H          13.6159    2.3206    6.6091 H       1  UNL1        0.0000
     69 C          12.5669    2.8879    8.3881 C.ar    1  UNL1        0.0000
     70 H          12.5395    1.8824    8.7834 H       1  UNL1        0.0000
     71 C          12.0055    3.9242    9.1091 C.ar    1  UNL1        0.0000
     72 H          11.5628    3.7245   10.0756 H       1  UNL1        0.0000
     73 C          12.3532    6.2482   11.0568 C.ar    1  UNL1        0.0000
     74 C          13.7331    6.3363   10.8840 C.ar    1  UNL1        0.0000
     75 H          14.1184    6.5948    9.9055 H       1  UNL1        0.0000
     76 C          14.5976    6.0884   11.9312 C.ar    1  UNL1        0.0000
     77 H          15.6655    6.1624   11.7816 H       1  UNL1        0.0000
     78 C          14.0917    5.7431   13.1745 C.ar    1  UNL1        0.0000
     79 H          14.7630    5.5504   13.9987 H       1  UNL1        0.0000
     80 C          12.7234    5.6424   13.3539 C.ar    1  UNL1        0.0000
     81 H          12.3247    5.3657   14.3200 H       1  UNL1        0.0000
     82 C          11.8556    5.8930   12.3043 C.ar    1  UNL1        0.0000
     83 H          10.7919    5.8119   12.4727 H       1  UNL1        0.0000
@<TRIPOS>BOND
     1    57    56    1
     2    56    54   ar
     3    56    58   ar
     4    59    58    1
     5    55    54    1
     6    44    43    1
     7    54    52   ar
     8    58    60   ar
     9    46    45    1
    10    43    45   ar
    11    43    41   ar
    12    42    41    1
    13    52    53    1
    14    52    51   ar
    15    45    47   ar
    16    60    61    1
    17    60    51   ar
    18    41    40   ar
    19    51     2    1
    20    47    48    1
    21    47    49   ar
    22    66    65    1
    23    40    49   ar
    24    40     2    1
    25    14    12    1
    26    49    50    1
    27    68    67    1
    28    65    67   ar
    29    65    63   ar
    30     2    12    1
    31    12    13    1
    32    12     4    1
    33    64    63    1
    34    67    69   ar
    35    63    62   ar
    36     7     5    1
    37    10     9    1
    38    69    70    1
    39    69    71   ar
    40     6     5    1
    41    20    19    1
    42    62    71   ar
    43    62     3    1
    44    22    21    1
    45     4     5    1
    46     4     9    1
    47     4    15    1
    48     5     8    1
    49     9     1    1
    50     9    11    1
    51    19    21   ar
    52    19    18   ar
    53    71    72    1
    54    21    23   ar
    55     3    15    1
    56     3    73    1
    57     1    18    1
    58     1    29    1
    59    18    27   ar
    60    23    24    1
    61    23    25   ar
    62    75    74    1
    63    15    17    1
    64    15    16    1
    65    27    25   ar
    66    27    28    1
    67    25    26    1
    68    74    73   ar
    69    74    76   ar
    70    73    82   ar
    71    29    30   ar
    72    29    38   ar
    73    31    30    1
    74    39    38    1
    75    77    76    1
    76    76    78   ar
    77    30    32   ar
    78    38    36   ar
    79    82    83    1
    80    82    80   ar
    81    78    80   ar
    82    78    79    1
    83    80    81    1
    84    32    33    1
    85    32    34   ar
    86    36    37    1
    87    36    34   ar
    88    34    35    1
