@<TRIPOS>MOLECULE
2,3,4
 50 49 0 0 0
SMALL
GASTEIGER

@<TRIPOS>ATOM
      1 SI          2.0031   -2.3114   -5.8884 Si      1  UNL1        0.0000
      2 P          -0.7042   -3.5393   -5.1763 P.3     1  UNL1        0.0000
      3 P          -0.1628   -0.5117   -4.6812 P.3     1  UNL1        0.0000
      4 P           1.3049   -2.6569   -2.9273 P.3     1  UNL1        0.0000
      5 C           3.4445   -2.3651   -7.1492 C.3     1  UNL1        0.0000
      6 C           0.4975   -3.2740   -6.5609 C.3     1  UNL1        0.0000
      7 H          -0.0100   -2.6707   -7.3170 H       1  UNL1        0.0000
      8 H           0.7550   -4.2359   -7.0075 H       1  UNL1        0.0000
      9 C           2.5489   -3.0856   -4.2292 C.3     1  UNL1        0.0000
     10 H           2.5551   -4.1743   -4.3190 H       1  UNL1        0.0000
     11 H           3.5393   -2.7639   -3.9018 H       1  UNL1        0.0000
     12 C           1.4640   -0.5086   -5.5709 C.3     1  UNL1        0.0000
     13 H           2.1876   -0.0225   -4.9125 H       1  UNL1        0.0000
     14 H           1.3755    0.0881   -6.4806 H       1  UNL1        0.0000
     15 C           4.0225   -3.7723   -7.2217 C.3     1  UNL1        0.0000
     16 C           2.9432   -1.9654   -8.5307 C.3     1  UNL1        0.0000
     17 C           4.5443   -1.4006   -6.7252 C.3     1  UNL1        0.0000
     18 C          -2.2628   -3.7218   -6.1398 C.3     1  UNL1        0.0000
     19 H          -3.0105   -4.1556   -5.4737 H       1  UNL1        0.0000
     20 H          -2.1178   -4.3683   -7.0076 H       1  UNL1        0.0000
     21 H          -2.6158   -2.7412   -6.4586 H       1  UNL1        0.0000
     22 C           1.5856   -4.0460   -1.7542 C.3     1  UNL1        0.0000
     23 H           2.6518   -4.2045   -1.5799 H       1  UNL1        0.0000
     24 H           1.1324   -4.9568   -2.1442 H       1  UNL1        0.0000
     25 H           1.0878   -3.7880   -0.8181 H       1  UNL1        0.0000
     26 C          -0.4059   -5.3285   -4.8708 C.3     1  UNL1        0.0000
     27 H           0.5965   -5.4711   -4.4683 H       1  UNL1        0.0000
     28 H          -0.5193   -5.9032   -5.7918 H       1  UNL1        0.0000
     29 H          -1.1339   -5.6687   -4.1339 H       1  UNL1        0.0000
     30 C          -0.0474    1.1334   -3.8589 C.3     1  UNL1        0.0000
     31 H          -1.0553    1.4363   -3.5751 H       1  UNL1        0.0000
     32 H           0.3852    1.8755   -4.5330 H       1  UNL1        0.0000
     33 H           0.5572    1.0529   -2.9557 H       1  UNL1        0.0000
     34 C           2.2428   -1.3731   -2.0042 C.3     1  UNL1        0.0000
     35 H           1.6349   -1.0752   -1.1476 H       1  UNL1        0.0000
     36 H           2.4036   -0.5037   -2.6405 H       1  UNL1        0.0000
     37 H           3.2027   -1.7619   -1.6597 H       1  UNL1        0.0000
     38 C          -1.2605    0.0023   -6.0665 C.3     1  UNL1        0.0000
     39 H          -1.2553   -0.7594   -6.8453 H       1  UNL1        0.0000
     40 H          -0.9382    0.9579   -6.4836 H       1  UNL1        0.0000
     41 H          -2.2742    0.0960   -5.6726 H       1  UNL1        0.0000
     42 H           3.7612   -1.9704   -9.2506 H       1  UNL1        0.0000
     43 H           2.5165   -0.9657   -8.5136 H       1  UNL1        0.0000
     44 H           4.1729   -0.3795   -6.6996 H       1  UNL1        0.0000
     45 H           3.2605   -4.4893   -7.5169 H       1  UNL1        0.0000
     46 H           4.4238   -4.0746   -6.2579 H       1  UNL1        0.0000
     47 H           4.8291   -3.8171   -7.9531 H       1  UNL1        0.0000
     48 H           5.3783   -1.4398   -7.4257 H       1  UNL1        0.0000
     49 H           4.9224   -1.6537   -5.7379 H       1  UNL1        0.0000
     50 H           2.1820   -2.6580   -8.8800 H       1  UNL1        0.0000
@<TRIPOS>BOND
     1    42    16    1
     2    50    16    1
     3    16    43    1
     4    16     5    1
     5    47    15    1
     6    45    15    1
     7    48    17    1
     8     7     6    1
     9    15     5    1
    10    15    46    1
    11     5    17    1
    12     5     1    1
    13    20    18    1
    14     8     6    1
    15    39    38    1
    16    17    44    1
    17    17    49    1
    18     6     1    1
    19     6     2    1
    20    40    38    1
    21    14    12    1
    22    21    18    1
    23    18    19    1
    24    18     2    1
    25    38    41    1
    26    38     3    1
    27     1    12    1
    28     1     9    1
    29    28    26    1
    30    12    13    1
    31    12     3    1
    32     2    26    1
    33    26    27    1
    34    26    29    1
    35     3    30    1
    36    32    30    1
    37    10     9    1
    38     9    11    1
    39     9     4    1
    40    30    31    1
    41    30    33    1
    42     4    34    1
    43     4    22    1
    44    36    34    1
    45    24    22    1
    46    34    37    1
    47    34    35    1
    48    22    23    1
    49    22    25    1
