@<TRIPOS>MOLECULE
1,2,3
 41 40 0 0 0
SMALL
GASTEIGER

@<TRIPOS>ATOM
      1 P           4.4974   12.1667   15.8993 P.3     1  UNL1        0.0000
      2 P           6.0423   15.1104   16.1078 P.3     1  UNL1        0.0000
      3 P           3.1646   14.8584   14.4290 P.3     1  UNL1        0.0000
      4 SI          5.8482   13.5633   13.4259 Si      1  UNL1        0.0000
      5 C           5.1077   11.9565   14.1505 C.3     1  UNL1        0.0000
      6 H           4.2468   11.6555   13.5484 H       1  UNL1        0.0000
      7 H           5.8293   11.1358   14.1281 H       1  UNL1        0.0000
      8 C           3.3904   10.6891   15.9885 C.3     1  UNL1        0.0000
      9 H           3.1499   10.5145   17.0373 H       1  UNL1        0.0000
     10 H           3.8711    9.8050   15.5661 H       1  UNL1        0.0000
     11 H           2.4612   10.8907   15.4560 H       1  UNL1        0.0000
     12 C           5.9279   11.4407   16.8055 C.3     1  UNL1        0.0000
     13 H           6.8025   12.0791   16.6895 H       1  UNL1        0.0000
     14 H           6.1615   10.4350   16.4516 H       1  UNL1        0.0000
     15 H           5.6649   11.4084   17.8639 H       1  UNL1        0.0000
     16 C           7.0179   14.3489   14.7146 C.3     1  UNL1        0.0000
     17 H           7.6617   13.5783   15.1448 H       1  UNL1        0.0000
     18 H           7.6627   15.1113   14.2714 H       1  UNL1        0.0000
     19 C           6.1440   16.8808   15.6184 C.3     1  UNL1        0.0000
     20 H           5.5764   17.0550   14.7052 H       1  UNL1        0.0000
     21 H           7.1794   17.1936   15.4703 H       1  UNL1        0.0000
     22 H           5.6941   17.4669   16.4209 H       1  UNL1        0.0000
     23 C           7.3250   15.1473   17.4228 C.3     1  UNL1        0.0000
     24 H           6.9525   15.7918   18.2206 H       1  UNL1        0.0000
     25 H           8.2767   15.5284   17.0465 H       1  UNL1        0.0000
     26 H           7.4629   14.1479   17.8356 H       1  UNL1        0.0000
     27 C           4.4238   14.7874   13.0582 C.3     1  UNL1        0.0000
     28 H           4.8376   15.7931   12.9508 H       1  UNL1        0.0000
     29 H           3.9119   14.5415   12.1247 H       1  UNL1        0.0000
     30 C           2.4081   16.4999   14.0631 C.3     1  UNL1        0.0000
     31 H           1.4777   16.5729   14.6277 H       1  UNL1        0.0000
     32 H           2.2106   16.6266   12.9970 H       1  UNL1        0.0000
     33 H           3.0735   17.2893   14.4119 H       1  UNL1        0.0000
     34 C           1.8420   13.8149   13.6634 C.3     1  UNL1        0.0000
     35 H           2.1627   12.7745   13.6309 H       1  UNL1        0.0000
     36 H           1.6051   14.1530   12.6536 H       1  UNL1        0.0000
     37 H           0.9535   13.8817   14.2926 H       1  UNL1        0.0000
     38 C           6.7899   13.1758   11.8229 C.3     1  UNL1        0.0000
     39 H           7.1690   14.0808   11.3641 H       1  UNL1        0.0000
     40 H           6.1483   12.6833   11.1024 H       1  UNL1        0.0000
     41 H           7.6336   12.5239   12.0141 H       1  UNL1        0.0000
@<TRIPOS>BOND
     1    40    38    1
     2    39    38    1
     3    38    41    1
     4    38     4    1
     5    29    27    1
     6    36    34    1
     7    28    27    1
     8    32    30    1
     9    27     4    1
    10    27     3    1
    11     4     5    1
    12     4    16    1
    13     6     5    1
    14    35    34    1
    15    34    37    1
    16    34     3    1
    17    30    33    1
    18    30     3    1
    19    30    31    1
    20     7     5    1
    21     5     1    1
    22    18    16    1
    23    20    19    1
    24    16    17    1
    25    16     2    1
    26    11     8    1
    27    21    19    1
    28    10     8    1
    29    19     2    1
    30    19    22    1
    31     1     8    1
    32     1    12    1
    33     8     9    1
    34     2    23    1
    35    14    12    1
    36    13    12    1
    37    12    15    1
    38    25    23    1
    39    23    26    1
    40    23    24    1
