@<TRIPOS>MOLECULE
2,3,4
 50 49 0 0 0
SMALL
GASTEIGER

@<TRIPOS>ATOM
      1 SI          1.9898    5.4084   25.7000 Si      1  UNL1        0.0000
      2 P           5.0116    4.9105   25.8204 P.3     1  UNL1        0.0000
      3 P           3.8543    7.8459   25.8127 P.3     1  UNL1        0.0000
      4 P           3.6502    6.1318   23.2517 P.3     1  UNL1        0.0000
      5 C           3.4314    4.6885   26.7143 C.3     1  UNL1        0.0000
      6 H           3.5089    5.2179   27.6644 H       1  UNL1        0.0000
      7 H           3.3231    3.6257   26.9357 H       1  UNL1        0.0000
      8 C           2.1210    7.2863   26.0071 C.3     1  UNL1        0.0000
      9 H           1.5009    7.8471   25.3083 H       1  UNL1        0.0000
     10 H           1.8038    7.5526   27.0170 H       1  UNL1        0.0000
     11 C           2.3460    5.0108   23.8694 C.3     1  UNL1        0.0000
     12 H           2.6949    3.9835   23.7727 H       1  UNL1        0.0000
     13 H           1.4712    5.1336   23.2289 H       1  UNL1        0.0000
     14 C           0.2962    4.7149   26.2508 C.3     1  UNL1        0.0000
     15 C          -0.8301    5.5002   25.5855 C.3     1  UNL1        0.0000
     16 H          -1.7954    5.0938   25.8809 H       1  UNL1        0.0000
     17 H          -0.7619    5.4440   24.5018 H       1  UNL1        0.0000
     18 H          -0.8030    6.5462   25.8801 H       1  UNL1        0.0000
     19 C           0.1530    4.8287   27.7653 C.3     1  UNL1        0.0000
     20 H          -0.8133    4.4394   28.0798 H       1  UNL1        0.0000
     21 H           0.2160    5.8647   28.0886 H       1  UNL1        0.0000
     22 H           0.9260    4.2593   28.2750 H       1  UNL1        0.0000
     23 C           0.1823    3.2467   25.8514 C.3     1  UNL1        0.0000
     24 H          -0.7752    2.8438   26.1756 H       1  UNL1        0.0000
     25 H           0.9673    2.6531   26.3137 H       1  UNL1        0.0000
     26 H           0.2477    3.1279   24.7729 H       1  UNL1        0.0000
     27 C           6.1376    4.4642   27.1922 C.3     1  UNL1        0.0000
     28 H           5.7834    3.5323   27.6364 H       1  UNL1        0.0000
     29 H           6.1417    5.2480   27.9476 H       1  UNL1        0.0000
     30 H           7.1505    4.3190   26.8210 H       1  UNL1        0.0000
     31 C           5.0989    3.3476   24.8609 C.3     1  UNL1        0.0000
     32 H           4.3302    2.6517   25.1949 H       1  UNL1        0.0000
     33 H           6.0738    2.8885   25.0136 H       1  UNL1        0.0000
     34 H           4.9690    3.5528   23.8007 H       1  UNL1        0.0000
     35 C           3.6092    9.5975   25.3808 C.3     1  UNL1        0.0000
     36 H           2.8612   10.0201   26.0540 H       1  UNL1        0.0000
     37 H           3.2791    9.6926   24.3483 H       1  UNL1        0.0000
     38 H           4.5503   10.1324   25.4930 H       1  UNL1        0.0000
     39 C           4.3794    8.0402   27.5507 C.3     1  UNL1        0.0000
     40 H           3.6376    8.6158   28.1057 H       1  UNL1        0.0000
     41 H           5.3307    8.5733   27.5581 H       1  UNL1        0.0000
     42 H           4.5202    7.0689   28.0199 H       1  UNL1        0.0000
     43 C           2.6176    7.4510   22.5321 C.3     1  UNL1        0.0000
     44 H           1.9100    6.9855   21.8442 H       1  UNL1        0.0000
     45 H           3.2470    8.1493   21.9836 H       1  UNL1        0.0000
     46 H           2.0722    7.9883   23.3031 H       1  UNL1        0.0000
     47 C           4.1485    5.3275   21.6919 C.3     1  UNL1        0.0000
     48 H           3.2609    4.9419   21.1880 H       1  UNL1        0.0000
     49 H           4.8531    4.5157   21.8698 H       1  UNL1        0.0000
     50 H           4.6214    6.0822   21.0642 H       1  UNL1        0.0000
@<TRIPOS>BOND
     1    50    47    1
     2    48    47    1
     3    47    49    1
     4    47     4    1
     5    44    43    1
     6    45    43    1
     7    43     4    1
     8    43    46    1
     9    13    11    1
    10     4    11    1
    11    12    11    1
    12    34    31    1
    13    11     1    1
    14    37    35    1
    15    17    15    1
    16    26    23    1
    17    31    33    1
    18    31    32    1
    19    31     2    1
    20     9     8    1
    21    35    38    1
    22    35     3    1
    23    35    36    1
    24    15    18    1
    25    15    16    1
    26    15    14    1
    27     1     8    1
    28     1    14    1
    29     1     5    1
    30     3     8    1
    31     3    39    1
    32     2     5    1
    33     2    27    1
    34    23    24    1
    35    23    14    1
    36    23    25    1
    37     8    10    1
    38    14    19    1
    39     5     7    1
    40     5     6    1
    41    30    27    1
    42    27    28    1
    43    27    29    1
    44    39    41    1
    45    39    42    1
    46    39    40    1
    47    19    20    1
    48    19    21    1
    49    19    22    1
