@<TRIPOS>MOLECULE
2,3,4
 41 40 0 0 0
SMALL
GASTEIGER

@<TRIPOS>ATOM
      1 SI         17.9410   11.1151    3.8906 Si      1  UNL1        0.0000
      2 P          14.9780   11.0931    4.7058 P.3     1  UNL1        0.0000
      3 P          17.0151   12.8437    6.1688 P.3     1  UNL1        0.0000
      4 P          17.4714    9.9330    6.6471 P.3     1  UNL1        0.0000
      5 C          16.1913   10.5250    3.4399 C.3     1  UNL1        0.0000
      6 H          15.8763   10.8576    2.4472 H       1  UNL1        0.0000
      7 H          16.1534    9.4324    3.4618 H       1  UNL1        0.0000
      8 C          17.8534   12.8925    4.5343 C.3     1  UNL1        0.0000
      9 H          17.2601   13.5245    3.8717 H       1  UNL1        0.0000
     10 H          18.8360   13.3529    4.6619 H       1  UNL1        0.0000
     11 C          18.7455   10.1900    5.3399 C.3     1  UNL1        0.0000
     12 H          19.1588    9.2169    5.0685 H       1  UNL1        0.0000
     13 H          19.5581   10.8007    5.7387 H       1  UNL1        0.0000
     14 C          17.1785    8.1633    6.2548 C.3     1  UNL1        0.0000
     15 H          18.1171    7.6048    6.2641 H       1  UNL1        0.0000
     16 H          16.7213    8.1027    5.2658 H       1  UNL1        0.0000
     17 H          16.4954    7.7364    6.9863 H       1  UNL1        0.0000
     18 C          18.5942    9.6363    8.0866 C.3     1  UNL1        0.0000
     19 H          19.5232    9.1723    7.7485 H       1  UNL1        0.0000
     20 H          18.0923    8.9699    8.7870 H       1  UNL1        0.0000
     21 H          18.8097   10.5706    8.6024 H       1  UNL1        0.0000
     22 C          18.4499   13.0703    7.2860 C.3     1  UNL1        0.0000
     23 H          18.9725   14.0066    7.0804 H       1  UNL1        0.0000
     24 H          19.1306   12.2305    7.1641 H       1  UNL1        0.0000
     25 H          18.0752   13.0649    8.3101 H       1  UNL1        0.0000
     26 C          16.4961   14.6108    6.1570 C.3     1  UNL1        0.0000
     27 H          17.3623   15.2124    5.8699 H       1  UNL1        0.0000
     28 H          16.1506   14.9182    7.1421 H       1  UNL1        0.0000
     29 H          15.6990   14.7751    5.4325 H       1  UNL1        0.0000
     30 C          14.3369   12.5961    3.8742 C.3     1  UNL1        0.0000
     31 H          14.0405   12.3797    2.8457 H       1  UNL1        0.0000
     32 H          15.0911   13.3800    3.8833 H       1  UNL1        0.0000
     33 H          13.4699   12.9364    4.4440 H       1  UNL1        0.0000
     34 C          13.5969    9.9938    4.2207 C.3     1  UNL1        0.0000
     35 H          13.3797   10.1047    3.1559 H       1  UNL1        0.0000
     36 H          12.7152   10.2592    4.8066 H       1  UNL1        0.0000
     37 H          13.8704    8.9614    4.4325 H       1  UNL1        0.0000
     38 C          19.0553   11.0086    2.3579 C.3     1  UNL1        0.0000
     39 H          18.6775   11.6325    1.5594 H       1  UNL1        0.0000
     40 H          19.1075    9.9933    1.9892 H       1  UNL1        0.0000
     41 H          20.0620   11.3317    2.5850 H       1  UNL1        0.0000
@<TRIPOS>BOND
     1    39    38    1
     2    40    38    1
     3    38    41    1
     4    38     1    1
     5     6     5    1
     6    31    30    1
     7    35    34    1
     8     5     7    1
     9     5     1    1
    10     5     2    1
    11     9     8    1
    12    30    32    1
    13    30    33    1
    14    30     2    1
    15     1     8    1
    16     1    11    1
    17    34    37    1
    18    34     2    1
    19    34    36    1
    20     8    10    1
    21     8     3    1
    22    12    11    1
    23    16    14    1
    24    11    13    1
    25    11     4    1
    26    29    26    1
    27    27    26    1
    28    26     3    1
    29    26    28    1
    30     3    22    1
    31    14    15    1
    32    14     4    1
    33    14    17    1
    34     4    18    1
    35    23    22    1
    36    24    22    1
    37    22    25    1
    38    19    18    1
    39    18    21    1
    40    18    20    1
