@<TRIPOS>MOLECULE
1,2,47
 90 96 0 0 0
SMALL
GASTEIGER

@<TRIPOS>ATOM
      1 P          16.0919   14.9740   18.1174 P.3     1  UNL1        0.0000
      2 P          15.8935   16.5903   21.0402 P.3     1  UNL1        0.0000
      3 C          13.0984   13.3922   20.7991 C.ar    1  UNL1        0.0000
      4 C          14.7326   17.8475   20.3753 C.ar    1  UNL1        0.0000
      5 C          15.6946   15.9721   16.6255 C.ar    1  UNL1        0.0000
      6 C          13.1499   19.8894   19.3310 C.ar    1  UNL1        0.0000
      7 H          12.5346   20.6768   18.9200 H       1  UNL1        0.0000
      8 C          15.0561   17.1964   16.8166 C.ar    1  UNL1        0.0000
      9 H          14.8068   17.5199   17.8182 H       1  UNL1        0.0000
     10 C          15.2963   19.0677   20.0074 C.ar    1  UNL1        0.0000
     11 H          16.3613   19.2127   20.1341 H       1  UNL1        0.0000
     12 C          14.5139   20.0805   19.4878 C.ar    1  UNL1        0.0000
     13 H          14.9663   21.0210   19.2060 H       1  UNL1        0.0000
     14 C          16.0170   15.5894   15.3273 C.ar    1  UNL1        0.0000
     15 H          16.5110   14.6463   15.1431 H       1  UNL1        0.0000
     16 C          13.3606   17.6713   20.2345 C.ar    1  UNL1        0.0000
     17 H          12.8921   16.7418   20.5237 H       1  UNL1        0.0000
     18 C          16.1947   17.5191   22.6000 C.ar    1  UNL1        0.0000
     19 C          14.7449   18.0126   15.7468 C.ar    1  UNL1        0.0000
     20 H          14.2439   18.9545   15.9209 H       1  UNL1        0.0000
     21 C          12.5783   18.6875   19.7105 C.ar    1  UNL1        0.0000
     22 H          11.5138   18.5362   19.5993 H       1  UNL1        0.0000
     23 C          17.4690   17.9062   22.9940 C.ar    1  UNL1        0.0000
     24 H          18.3229   17.6500   22.3791 H       1  UNL1        0.0000
     25 C          11.9054   13.6478   20.1244 C.ar    1  UNL1        0.0000
     26 H          11.9091   14.2924   19.2553 H       1  UNL1        0.0000
     27 C          13.0040   12.5774   21.9283 C.ar    1  UNL1        0.0000
     28 H          13.8949   12.3699   22.5071 H       1  UNL1        0.0000
     29 C          10.6970   13.1088   20.5316 C.ar    1  UNL1        0.0000
     30 H           9.7934   13.3313   19.9786 H       1  UNL1        0.0000
     31 C          10.6406   12.2899   21.6446 C.ar    1  UNL1        0.0000
     32 H           9.6997   11.8649   21.9661 H       1  UNL1        0.0000
     33 C          11.8052   12.0299   22.3462 C.ar    1  UNL1        0.0000
     34 H          11.7759   11.4001   23.2259 H       1  UNL1        0.0000
     35 C          15.1088   17.8728   23.3962 C.ar    1  UNL1        0.0000
     36 H          14.1083   17.5968   23.0938 H       1  UNL1        0.0000
     37 C          15.7104   16.4113   14.2552 C.ar    1  UNL1        0.0000
     38 H          15.9694   16.0971   13.2541 H       1  UNL1        0.0000
     39 C          15.0742   17.6229   14.4581 C.ar    1  UNL1        0.0000
     40 H          14.8335   18.2589   13.6189 H       1  UNL1        0.0000
     41 C          17.6592   18.6191   24.1646 C.ar    1  UNL1        0.0000
     42 H          18.6571   18.9137   24.4564 H       1  UNL1        0.0000
     43 C          15.2984   18.5822   24.5661 C.ar    1  UNL1        0.0000
     44 H          14.4473   18.8493   25.1761 H       1  UNL1        0.0000
     45 C          16.5749   18.9562   24.9551 C.ar    1  UNL1        0.0000
     46 H          16.7213   19.5128   25.8694 H       1  UNL1        0.0000
     47 P          17.3760   13.7361   20.4650 P.3     1  UNL1        0.0000
     48 C          18.5808   12.5598   19.7466 C.ar    1  UNL1        0.0000
     49 C          14.8331   15.2114   21.5604 C.3     1  UNL1        0.0000
     50 H          15.3780   14.7246   22.3804 H       1  UNL1        0.0000
     51 H          13.9218   15.6252   22.0062 H       1  UNL1        0.0000
     52 C          17.8077   13.4212   22.2222 C.ar    1  UNL1        0.0000
     53 C          15.7356   12.9504   20.3890 C.3     1  UNL1        0.0000
     54 H          15.6893   12.3590   19.4710 H       1  UNL1        0.0000
     55 H          15.6865   12.2572   21.2342 H       1  UNL1        0.0000
     56 C          19.9125   12.9667   19.7346 C.ar    1  UNL1        0.0000
     57 H          20.1655   13.9497   20.1145 H       1  UNL1        0.0000
     58 C          18.2554   11.2953   19.2731 C.ar    1  UNL1        0.0000
     59 H          17.2315   10.9497   19.2856 H       1  UNL1        0.0000
     60 C          14.4615   14.7167   18.8615 C.3     1  UNL1        0.0000
     61 H          14.0070   15.7128   18.8638 H       1  UNL1        0.0000
     62 H          13.8749   14.1137   18.1602 H       1  UNL1        0.0000
     63 C          17.9088   14.4345   23.1625 C.ar    1  UNL1        0.0000
     64 H          17.7718   15.4620   22.8572 H       1  UNL1        0.0000
     65 C          17.8745   13.2917   16.7999 C.ar    1  UNL1        0.0000
     66 H          18.5888   14.0745   17.0169 H       1  UNL1        0.0000
     67 C          17.9832   12.1020   22.6351 C.ar    1  UNL1        0.0000
     68 H          17.9086   11.2976   21.9158 H       1  UNL1        0.0000
     69 C          16.5675   13.4189   17.2631 C.ar    1  UNL1        0.0000
     70 C          20.8953   12.1363   19.2330 C.ar    1  UNL1        0.0000
     71 H          21.9252   12.4644   19.2247 H       1  UNL1        0.0000
     72 C          19.2420   10.4648   18.7704 C.ar    1  UNL1        0.0000
     73 H          18.9766    9.4855   18.3981 H       1  UNL1        0.0000
     74 C          20.5605   10.8834   18.7435 C.ar    1  UNL1        0.0000
     75 H          21.3268   10.2332   18.3463 H       1  UNL1        0.0000
     76 B          14.5124   14.0656   20.3886 B       1  UNL1        0.0000
     77 C          16.0601   11.2870   16.2616 C.ar    1  UNL1        0.0000
     78 H          15.3440   10.5048   16.0529 H       1  UNL1        0.0000
     79 C          18.1756   14.1462   24.4894 C.ar    1  UNL1        0.0000
     80 H          18.2410   14.9513   25.2074 H       1  UNL1        0.0000
     81 C          17.3656   11.1678   15.8166 C.ar    1  UNL1        0.0000
     82 H          17.6730   10.2929   15.2627 H       1  UNL1        0.0000
     83 C          15.6594   12.4056   16.9711 C.ar    1  UNL1        0.0000
     84 H          14.6337   12.4724   17.3025 H       1  UNL1        0.0000
     85 C          18.2729   12.1784   16.0842 C.ar    1  UNL1        0.0000
     86 H          19.2939   12.0983   15.7400 H       1  UNL1        0.0000
     87 C          18.2580   11.8132   23.9578 C.ar    1  UNL1        0.0000
     88 H          18.3961   10.7862   24.2644 H       1  UNL1        0.0000
     89 C          18.3531   12.8342   24.8905 C.ar    1  UNL1        0.0000
     90 H          18.5633   12.6047   25.9249 H       1  UNL1        0.0000
@<TRIPOS>BOND
     1    38    37    1
     2    40    39    1
     3    37    39   ar
     4    37    14   ar
     5    39    19   ar
     6    15    14    1
     7    82    81    1
     8    14     5   ar
     9    86    85    1
    10    19    20    1
    11    19     8   ar
    12    81    85   ar
    13    81    77   ar
    14    78    77    1
    15    85    65   ar
    16    77    83   ar
    17     5     8   ar
    18     5     1    1
    19    65    66    1
    20    65    69   ar
    21     8     9    1
    22    83    69   ar
    23    83    84    1
    24    69     1    1
    25     1    60    1
    26    62    60    1
    27    75    74    1
    28    73    72    1
    29    74    72   ar
    30    74    70   ar
    31    72    58   ar
    32    60    61    1
    33    60    76    1
    34     7     6    1
    35    13    12    1
    36    71    70    1
    37    70    56   ar
    38    26    25    1
    39    58    59    1
    40    58    48   ar
    41     6    12   ar
    42     6    21   ar
    43    54    53    1
    44    12    10   ar
    45    22    21    1
    46    21    16   ar
    47    56    48   ar
    48    56    57    1
    49    48    47    1
    50    30    29    1
    51    10    11    1
    52    10     4   ar
    53    25    29   ar
    54    25     3   ar
    55    16     4   ar
    56    16    17    1
    57     4     2    1
    58    76    53    1
    59    76     3    1
    60    76    49    1
    61    53    47    1
    62    53    55    1
    63    47    52    1
    64    29    31   ar
    65     3    27   ar
    66     2    49    1
    67     2    18    1
    68    49    51    1
    69    49    50    1
    70    31    32    1
    71    31    33   ar
    72    68    67    1
    73    27    33   ar
    74    27    28    1
    75    52    67   ar
    76    52    63   ar
    77    33    34    1
    78    24    23    1
    79    18    23   ar
    80    18    35   ar
    81    67    87   ar
    82    64    63    1
    83    23    41   ar
    84    36    35    1
    85    63    79   ar
    86    35    43   ar
    87    87    88    1
    88    87    89   ar
    89    41    42    1
    90    41    45   ar
    91    79    89   ar
    92    79    80    1
    93    43    45   ar
    94    43    44    1
    95    89    90    1
    96    45    46    1
