@<TRIPOS>MOLECULE
1,17,31
 101 106 0 0 0
SMALL
GASTEIGER

@<TRIPOS>ATOM
      1 P           7.5918    4.7034   16.0645 P.3     1  UNL1        0.0000
      2 C           9.0501    3.6052   16.0572 C.ar    1  UNL1        0.0000
      3 C           9.6093    3.1893   14.8586 C.ar    1  UNL1        0.0000
      4 C          10.7104    2.3500   14.8545 C.ar    1  UNL1        0.0000
      5 C          11.2561    1.9190   16.0508 C.ar    1  UNL1        0.0000
      6 C          10.6944    2.3216   17.2535 C.ar    1  UNL1        0.0000
      7 C           9.5957    3.1585   17.2593 C.ar    1  UNL1        0.0000
      8 C           6.5234    3.6584   17.1040 C.ar    1  UNL1        0.0000
      9 C           5.7976    4.0796   18.2099 C.ar    1  UNL1        0.0000
     10 C           4.9270    3.2110   18.8467 C.ar    1  UNL1        0.0000
     11 C           4.7676    1.9180   18.3831 C.ar    1  UNL1        0.0000
     12 C           5.4839    1.4897   17.2754 C.ar    1  UNL1        0.0000
     13 C           6.3519    2.3542   16.6402 C.ar    1  UNL1        0.0000
     14 C           8.2281    5.9883   17.2435 C.3     1  UNL1        0.0000
     15 C           7.7871    7.4309   16.9765 C.3     1  UNL1        0.0000
     16 C           8.4008    8.0050   15.6938 C.3     1  UNL1        0.0000
     17 P           7.9686    7.1858   14.0958 P.3     1  UNL1        0.0000
     18 C           9.5726    6.5853   13.4834 C.ar    1  UNL1        0.0000
     19 C           9.7097    6.4877   12.0995 C.ar    1  UNL1        0.0000
     20 C          10.8405    5.9217   11.5450 C.ar    1  UNL1        0.0000
     21 C          11.8461    5.4337   12.3654 C.ar    1  UNL1        0.0000
     22 C          11.7113    5.5124   13.7397 C.ar    1  UNL1        0.0000
     23 C          10.5793    6.0816   14.2969 C.ar    1  UNL1        0.0000
     24 C           7.8253    8.6712   13.0443 C.ar    1  UNL1        0.0000
     25 C           6.7904    8.7669   12.1258 C.ar    1  UNL1        0.0000
     26 C           6.6716    9.8811   11.3136 C.ar    1  UNL1        0.0000
     27 C           7.5908   10.9099   11.4161 C.ar    1  UNL1        0.0000
     28 C           8.6343   10.8162   12.3244 C.ar    1  UNL1        0.0000
     29 C           8.7583    9.7028   13.1329 C.ar    1  UNL1        0.0000
     30 C           6.2633    7.5909   17.0255 C.3     1  UNL1        0.0000
     31 P           5.2849    6.8330   15.6525 P.3     1  UNL1        0.0000
     32 C           4.5908    8.2686   14.7774 C.ar    1  UNL1        0.0000
     33 C           3.4456    8.0007   14.0282 C.ar    1  UNL1        0.0000
     34 C           2.8766    8.9802   13.2401 C.ar    1  UNL1        0.0000
     35 C           3.4484   10.2426   13.1857 C.ar    1  UNL1        0.0000
     36 C           4.5846   10.5160   13.9251 C.ar    1  UNL1        0.0000
     37 C           5.1576    9.5346   14.7168 C.ar    1  UNL1        0.0000
     38 C           3.7988    6.3791   16.6076 C.ar    1  UNL1        0.0000
     39 C           3.3111    5.0817   16.5736 C.ar    1  UNL1        0.0000
     40 C           2.1876    4.7382   17.3063 C.ar    1  UNL1        0.0000
     41 C           1.5447    5.6926   18.0745 C.ar    1  UNL1        0.0000
     42 C           2.0214    6.9950   18.1045 C.ar    1  UNL1        0.0000
     43 C           3.1419    7.3398   17.3746 C.ar    1  UNL1        0.0000
     44 C           8.3516    8.2955   18.1340 C.3     1  UNL1        0.0000
     45 O           7.9497    9.6398   17.9713 O.3     1  UNL1        0.0000
     46 C           8.9253   10.6020   18.3257 C.3     1  UNL1        0.0000
     47 C          10.0850   10.5941   17.4430 C.1     1  UNL1        0.0000
     48 C          11.0165   10.5260   16.6805 C.1     1  UNL1        0.0000
     49 SI         12.5046   10.5424   15.5589 Si      1  UNL1        0.0000
     50 C          12.6846    8.8268   14.7508 C.3     1  UNL1        0.0000
     51 C          14.0210   10.9415   16.6408 C.3     1  UNL1        0.0000
     52 C          12.2459   11.8877   14.2366 C.3     1  UNL1        0.0000
     53 H           9.1762    3.5290   13.9291 H       1  UNL1        0.0000
     54 H          11.1396    2.0340   13.9151 H       1  UNL1        0.0000
     55 H          12.1150    1.2638   16.0506 H       1  UNL1        0.0000
     56 H          11.1135    1.9764   18.1879 H       1  UNL1        0.0000
     57 H           9.1479    3.4595   18.1976 H       1  UNL1        0.0000
     58 H           5.8920    5.0890   18.5851 H       1  UNL1        0.0000
     59 H           4.3650    3.5533   19.7041 H       1  UNL1        0.0000
     60 H           4.0842    1.2452   18.8799 H       1  UNL1        0.0000
     61 H           5.3591    0.4828   16.9054 H       1  UNL1        0.0000
     62 H           6.9082    2.0297   15.7683 H       1  UNL1        0.0000
     63 H           9.3227    5.9443   17.1986 H       1  UNL1        0.0000
     64 H           7.9365    5.7022   18.2606 H       1  UNL1        0.0000
     65 H           9.4927    8.0189   15.7947 H       1  UNL1        0.0000
     66 H           8.0751    9.0477   15.6153 H       1  UNL1        0.0000
     67 H           8.9141    6.8559   11.4632 H       1  UNL1        0.0000
     68 H          10.9364    5.8524   10.4714 H       1  UNL1        0.0000
     69 H          12.7289    4.9864   11.9328 H       1  UNL1        0.0000
     70 H          12.4853    5.1216   14.3849 H       1  UNL1        0.0000
     71 H          10.4870    6.1200   15.3735 H       1  UNL1        0.0000
     72 H           6.0726    7.9625   12.0575 H       1  UNL1        0.0000
     73 H           5.8584    9.9451   10.6059 H       1  UNL1        0.0000
     74 H           7.4998   11.7843   10.7884 H       1  UNL1        0.0000
     75 H           9.3538   11.6194   12.3990 H       1  UNL1        0.0000
     76 H           9.5800    9.6355   13.8339 H       1  UNL1        0.0000
     77 H           6.0309    8.6594   17.0807 H       1  UNL1        0.0000
     78 H           5.8998    7.1343   17.9537 H       1  UNL1        0.0000
     79 H           3.0092    7.0092   14.0734 H       1  UNL1        0.0000
     80 H           1.9898    8.7613   12.6635 H       1  UNL1        0.0000
     81 H           3.0081   11.0103   12.5664 H       1  UNL1        0.0000
     82 H           5.0365   11.4968   13.8824 H       1  UNL1        0.0000
     83 H           6.0484    9.7736   15.2802 H       1  UNL1        0.0000
     84 H           3.8180    4.3424   15.9701 H       1  UNL1        0.0000
     85 H           1.8171    3.7241   17.2752 H       1  UNL1        0.0000
     86 H           0.6679    5.4271   18.6470 H       1  UNL1        0.0000
     87 H           1.5134    7.7424   18.6972 H       1  UNL1        0.0000
     88 H           3.5078    8.3582   17.3870 H       1  UNL1        0.0000
     89 H           9.4467    8.2225   18.1390 H       1  UNL1        0.0000
     90 H           7.9772    7.9225   19.1011 H       1  UNL1        0.0000
     91 H           9.2566   10.4556   19.3670 H       1  UNL1        0.0000
     92 H           8.4147   11.5682   18.2505 H       1  UNL1        0.0000
     93 H          13.5815    8.7766   14.1399 H       1  UNL1        0.0000
     94 H          12.7565    8.0403   15.4966 H       1  UNL1        0.0000
     95 H          11.8437    8.5888   14.1053 H       1  UNL1        0.0000
     96 H          14.9295   10.9772   16.0465 H       1  UNL1        0.0000
     97 H          13.9113   11.9037   17.1320 H       1  UNL1        0.0000
     98 H          14.1640   10.1931   17.4146 H       1  UNL1        0.0000
     99 H          13.1340   12.0101   13.6230 H       1  UNL1        0.0000
    100 H          11.4233   11.6371   13.5741 H       1  UNL1        0.0000
    101 H          12.0235   12.8491   14.6900 H       1  UNL1        0.0000
@<TRIPOS>BOND
     1    68    20    1
     2    73    26    1
     3    74    27    1
     4    26    27   ar
     5    26    25   ar
     6    27    28   ar
     7    67    19    1
     8    20    19   ar
     9    20    21   ar
    10    69    21    1
    11    72    25    1
    12    19    18   ar
    13    25    24   ar
    14    28    75    1
    15    28    29   ar
    16    21    22   ar
    17    81    35    1
    18    80    34    1
    19    24    29   ar
    20    24    17    1
    21    29    76    1
    22    35    34   ar
    23    35    36   ar
    24    34    33   ar
    25    18    17    1
    26    18    23   ar
    27   100    52    1
    28    99    52    1
    29    22    23   ar
    30    22    70    1
    31    82    36    1
    32    54     4    1
    33    36    37   ar
    34    53     3    1
    35    33    79    1
    36    33    32   ar
    37    17    16    1
    38    95    50    1
    39    93    50    1
    40    52   101    1
    41    52    49    1
    42    23    71    1
    43    37    32   ar
    44    37    83    1
    45    50    94    1
    46    50    49    1
    47    32    31    1
    48     4     3   ar
    49     4     5   ar
    50     3     2   ar
    51    49    51    1
    52    49    48    1
    53    66    16    1
    54    31    38    1
    55    31    30    1
    56    16    65    1
    57    16    15    1
    58    62    13    1
    59    84    39    1
    60    96    51    1
    61    55     5    1
    62     5     6   ar
    63     2     1    1
    64     2     7   ar
    65     1     8    1
    66     1    14    1
    67    39    38   ar
    68    39    40   ar
    69    38    43   ar
    70    13     8   ar
    71    13    12   ar
    72    51    97    1
    73    51    98    1
    74    48    47    3
    75    61    12    1
    76    15    30    1
    77    15    14    1
    78    15    44    1
    79    30    77    1
    80    30    78    1
    81     8     9   ar
    82    63    14    1
    83    14    64    1
    84     6     7   ar
    85     6    56    1
    86     7    57    1
    87    85    40    1
    88    12    11   ar
    89    40    41   ar
    90    43    88    1
    91    43    42   ar
    92    47    46    1
    93    45    44    1
    94    45    46    1
    95    41    42   ar
    96    41    86    1
    97    42    87    1
    98    44    89    1
    99    44    90    1
   100     9    58    1
   101     9    10   ar
   102    92    46    1
   103    46    91    1
   104    11    10   ar
   105    11    60    1
   106    10    59    1
