@<TRIPOS>MOLECULE
1,2,3
 50 49 0 0 0
SMALL
GASTEIGER

@<TRIPOS>ATOM
      1 P          13.9488    2.7675   12.0210 P.3     1  UNL1        0.0000
      2 P          14.0302    2.6436    8.8560 P.3     1  UNL1        0.0000
      3 P          11.8489    4.4420   10.3039 P.3     1  UNL1        0.0000
      4 SI         14.8280    5.2126   10.3767 Si      1  UNL1        0.0000
      5 C          13.3562    2.5711   13.7449 C.3     1  UNL1        0.0000
      6 C          15.4348    1.6893   12.1469 C.3     1  UNL1        0.0000
      7 C          14.7660    4.4294   12.1179 C.3     1  UNL1        0.0000
      8 C          13.4213    3.2044    7.2154 C.3     1  UNL1        0.0000
      9 C          15.0021    1.1952    8.2780 C.3     1  UNL1        0.0000
     10 C          15.3859    3.8712    9.1317 C.3     1  UNL1        0.0000
     11 C          11.1145    5.1222   11.8431 C.3     1  UNL1        0.0000
     12 C          10.4757    4.8896    9.1660 C.3     1  UNL1        0.0000
     13 C          13.0666    5.7782    9.9008 C.3     1  UNL1        0.0000
     14 C          16.0460    6.6963   10.3437 C.3     1  UNL1        0.0000
     15 C          15.8833    7.4790    9.0453 C.3     1  UNL1        0.0000
     16 C          15.7654    7.6266   11.5189 C.3     1  UNL1        0.0000
     17 C          17.4832    6.1964   10.4421 C.3     1  UNL1        0.0000
     18 H          14.1245    2.8484   14.4703 H       1  UNL1        0.0000
     19 H          12.4613    3.1741   13.8974 H       1  UNL1        0.0000
     20 H          13.0816    1.5222   13.8720 H       1  UNL1        0.0000
     21 H          15.0859    0.6556   12.1803 H       1  UNL1        0.0000
     22 H          16.0722    1.8161   11.2729 H       1  UNL1        0.0000
     23 H          16.0068    1.9135   13.0497 H       1  UNL1        0.0000
     24 H          14.1618    5.0530   12.7792 H       1  UNL1        0.0000
     25 H          15.7531    4.3155   12.5706 H       1  UNL1        0.0000
     26 H          12.9872    4.1997    7.2979 H       1  UNL1        0.0000
     27 H          14.2293    3.2176    6.4808 H       1  UNL1        0.0000
     28 H          12.6440    2.5082    6.8958 H       1  UNL1        0.0000
     29 H          14.2979    0.4822    7.8456 H       1  UNL1        0.0000
     30 H          15.7466    1.4828    7.5322 H       1  UNL1        0.0000
     31 H          15.4909    0.7173    9.1268 H       1  UNL1        0.0000
     32 H          16.2385    3.3265    9.5416 H       1  UNL1        0.0000
     33 H          15.6851    4.2862    8.1669 H       1  UNL1        0.0000
     34 H          11.8662    5.1731   12.6294 H       1  UNL1        0.0000
     35 H          10.6930    6.1152   11.6730 H       1  UNL1        0.0000
     36 H          10.3250    4.4364   12.1561 H       1  UNL1        0.0000
     37 H          10.2554    5.9590    9.1984 H       1  UNL1        0.0000
     38 H          10.7240    4.5914    8.1475 H       1  UNL1        0.0000
     39 H           9.6006    4.3191    9.4828 H       1  UNL1        0.0000
     40 H          13.0133    5.9573    8.8253 H       1  UNL1        0.0000
     41 H          12.7632    6.6953   10.4100 H       1  UNL1        0.0000
     42 H          16.5896    8.3078    9.0093 H       1  UNL1        0.0000
     43 H          16.0672    6.8440    8.1819 H       1  UNL1        0.0000
     44 H          14.8797    7.8885    8.9633 H       1  UNL1        0.0000
     45 H          15.9140    7.1116   12.4646 H       1  UNL1        0.0000
     46 H          16.4356    8.4852   11.4936 H       1  UNL1        0.0000
     47 H          14.7438    7.9974   11.4863 H       1  UNL1        0.0000
     48 H          17.6344    5.6224   11.3532 H       1  UNL1        0.0000
     49 H          17.7330    5.5655    9.5929 H       1  UNL1        0.0000
     50 H          18.1782    7.0354   10.4544 H       1  UNL1        0.0000
@<TRIPOS>BOND
     1    27     8    1
     2    28     8    1
     3     8    26    1
     4     8     2    1
     5    30     9    1
     6    29     9    1
     7    38    12    1
     8    33    10    1
     9    43    15    1
    10     9     2    1
    11     9    31    1
    12    40    13    1
    13     2    10    1
    14    44    15    1
    15    42    15    1
    16    15    14    1
    17    10    32    1
    18    10     4    1
    19    12    37    1
    20    12    39    1
    21    12     3    1
    22    49    17    1
    23    13     3    1
    24    13     4    1
    25    13    41    1
    26     3    11    1
    27    14     4    1
    28    14    17    1
    29    14    16    1
    30     4     7    1
    31    17    50    1
    32    17    48    1
    33    22     6    1
    34    47    16    1
    35    46    16    1
    36    16    45    1
    37    35    11    1
    38    11    36    1
    39    11    34    1
    40     1     7    1
    41     1     6    1
    42     1     5    1
    43     7    25    1
    44     7    24    1
    45     6    21    1
    46     6    23    1
    47     5    20    1
    48     5    19    1
    49     5    18    1
