@<TRIPOS>MOLECULE
1,2,3
 50 49 0 0 0
SMALL
GASTEIGER

@<TRIPOS>ATOM
      1 P           2.3054    0.8832    1.6537 P.3     1  UNL1        0.0000
      2 P           1.8502    3.0614    4.1891 P.3     1  UNL1        0.0000
      3 P           4.1448    3.7034    1.7902 P.3     1  UNL1        0.0000
      4 SI          4.4661    1.3984    3.8604 Si      1  UNL1        0.0000
      5 C           3.8702    0.2775    2.4235 C.3     1  UNL1        0.0000
      6 C           2.9797    1.8320    4.9855 C.3     1  UNL1        0.0000
      7 C           5.2046    3.0098    3.1392 C.3     1  UNL1        0.0000
      8 C           1.0637   -0.1905    2.4626 C.3     1  UNL1        0.0000
      9 C           2.3696    0.0757    0.0107 C.3     1  UNL1        0.0000
     10 C           0.2866    2.7628    5.0949 C.3     1  UNL1        0.0000
     11 C           2.3618    4.6155    5.0029 C.3     1  UNL1        0.0000
     12 C           5.0521    3.1397    0.3024 C.3     1  UNL1        0.0000
     13 C           4.6395    5.4619    1.7891 C.3     1  UNL1        0.0000
     14 C           5.8006    0.4679    4.8751 C.3     1  UNL1        0.0000
     15 C           5.1679   -0.6931    5.6346 C.3     1  UNL1        0.0000
     16 C           6.8783   -0.0799    3.9457 C.3     1  UNL1        0.0000
     17 C           6.4496    1.4165    5.8771 C.3     1  UNL1        0.0000
     18 H           3.7110   -0.7552    2.7429 H       1  UNL1        0.0000
     19 H           4.6280    0.2712    1.6373 H       1  UNL1        0.0000
     20 H           3.2959    2.2382    5.9490 H       1  UNL1        0.0000
     21 H           2.3915    0.9326    5.1779 H       1  UNL1        0.0000
     22 H           6.2125    2.8668    2.7432 H       1  UNL1        0.0000
     23 H           5.2567    3.7664    3.9245 H       1  UNL1        0.0000
     24 H           1.0169    0.0362    3.5260 H       1  UNL1        0.0000
     25 H           0.0948    0.0352    2.0160 H       1  UNL1        0.0000
     26 H           1.3033   -1.2454    2.3186 H       1  UNL1        0.0000
     27 H           1.3898    0.1963   -0.4522 H       1  UNL1        0.0000
     28 H           3.1054    0.5789   -0.6154 H       1  UNL1        0.0000
     29 H           2.6151   -0.9840    0.0990 H       1  UNL1        0.0000
     30 H          -0.3902    3.5785    4.8394 H       1  UNL1        0.0000
     31 H          -0.1638    1.8298    4.7587 H       1  UNL1        0.0000
     32 H           0.4495    2.7333    6.1736 H       1  UNL1        0.0000
     33 H           2.2858    4.5365    6.0887 H       1  UNL1        0.0000
     34 H           3.3821    4.8652    4.7185 H       1  UNL1        0.0000
     35 H           1.6978    5.4002    4.6389 H       1  UNL1        0.0000
     36 H           5.0026    2.0554    0.2206 H       1  UNL1        0.0000
     37 H           4.5536    3.5776   -0.5629 H       1  UNL1        0.0000
     38 H           6.0945    3.4609    0.3323 H       1  UNL1        0.0000
     39 H           5.7253    5.5718    1.7974 H       1  UNL1        0.0000
     40 H           4.2201    5.9123    0.8892 H       1  UNL1        0.0000
     41 H           4.2024    5.9635    2.6513 H       1  UNL1        0.0000
     42 H           4.4206   -0.3356    6.3388 H       1  UNL1        0.0000
     43 H           4.6903   -1.3929    4.9525 H       1  UNL1        0.0000
     44 H           5.9257   -1.2382    6.1965 H       1  UNL1        0.0000
     45 H           7.6527   -0.5886    4.5192 H       1  UNL1        0.0000
     46 H           6.4587   -0.7944    3.2417 H       1  UNL1        0.0000
     47 H           7.3519    0.7206    3.3818 H       1  UNL1        0.0000
     48 H           7.1965    0.8903    6.4708 H       1  UNL1        0.0000
     49 H           6.9445    2.2402    5.3684 H       1  UNL1        0.0000
     50 H           5.7101    1.8289    6.5596 H       1  UNL1        0.0000
@<TRIPOS>BOND
     1    28     9    1
     2    37    12    1
     3    27     9    1
     4     9    29    1
     5     9     1    1
     6    36    12    1
     7    12    38    1
     8    12     3    1
     9    40    13    1
    10    19     5    1
    11     1     5    1
    12     1     8    1
    13    13     3    1
    14    13    39    1
    15    13    41    1
    16     3     7    1
    17    25     8    1
    18    26     8    1
    19     5    18    1
    20     5     4    1
    21     8    24    1
    22    22     7    1
    23     7     4    1
    24     7    23    1
    25    46    16    1
    26    47    16    1
    27     4    14    1
    28     4     6    1
    29    16    45    1
    30    16    14    1
    31     2     6    1
    32     2    11    1
    33     2    10    1
    34    35    11    1
    35    34    11    1
    36    31    10    1
    37    30    10    1
    38    14    15    1
    39    14    17    1
    40    43    15    1
    41     6    21    1
    42     6    20    1
    43    11    33    1
    44    10    32    1
    45    49    17    1
    46    15    44    1
    47    15    42    1
    48    17    48    1
    49    17    50    1
