@<TRIPOS>MOLECULE
1,2,3
 41 40 0 0 0
SMALL
GASTEIGER

@<TRIPOS>ATOM
      1 P           2.3098    2.6612    3.3885 P.3     1  UNL1        0.0000
      2 P          -0.2343    3.8053    5.1033 P.3     1  UNL1        0.0000
      3 P          -0.5568    1.0821    3.3127 P.3     1  UNL1        0.0000
      4 SI          1.1896    1.1844    5.8389 Si      1  UNL1        0.0000
      5 C           2.7284    2.0073    5.0657 C.3     1  UNL1        0.0000
      6 C          -0.0377    2.5249    6.4215 C.3     1  UNL1        0.0000
      7 C           0.3456    0.0526    4.5547 C.3     1  UNL1        0.0000
      8 C           1.7277    0.1389    7.3332 C.3     1  UNL1        0.0000
      9 C           3.0754    1.3559    2.3456 C.3     1  UNL1        0.0000
     10 C           3.6270    3.9307    3.2097 C.3     1  UNL1        0.0000
     11 C           0.8157    5.1402    5.8058 C.3     1  UNL1        0.0000
     12 C          -1.8699    4.4958    5.5796 C.3     1  UNL1        0.0000
     13 C          -2.2784    0.8628    3.9175 C.3     1  UNL1        0.0000
     14 C          -0.6286   -0.1083    1.9139 C.3     1  UNL1        0.0000
     15 H           3.5789    1.3276    4.9853 H       1  UNL1        0.0000
     16 H           3.0335    2.8575    5.6787 H       1  UNL1        0.0000
     17 H           0.2702    3.0086    7.3505 H       1  UNL1        0.0000
     18 H          -1.0187    2.0748    6.5851 H       1  UNL1        0.0000
     19 H          -0.3495   -0.6574    5.0066 H       1  UNL1        0.0000
     20 H           1.1045   -0.5168    4.0148 H       1  UNL1        0.0000
     21 H           2.3887   -0.6623    7.0310 H       1  UNL1        0.0000
     22 H           2.2520    0.7418    8.0625 H       1  UNL1        0.0000
     23 H           0.8736   -0.3060    7.8258 H       1  UNL1        0.0000
     24 H           4.1297    1.2227    2.5928 H       1  UNL1        0.0000
     25 H           2.9773    1.6578    1.3028 H       1  UNL1        0.0000
     26 H           2.5400    0.4186    2.4872 H       1  UNL1        0.0000
     27 H           4.5899    3.5454    3.5488 H       1  UNL1        0.0000
     28 H           3.6930    4.2047    2.1566 H       1  UNL1        0.0000
     29 H           3.3560    4.8173    3.7815 H       1  UNL1        0.0000
     30 H           1.8567    4.8214    5.8043 H       1  UNL1        0.0000
     31 H           0.7197    6.0161    5.1643 H       1  UNL1        0.0000
     32 H           0.5048    5.3914    6.8210 H       1  UNL1        0.0000
     33 H          -1.9326    4.6433    6.6588 H       1  UNL1        0.0000
     34 H          -2.6582    3.8217    5.2471 H       1  UNL1        0.0000
     35 H          -1.9952    5.4521    5.0715 H       1  UNL1        0.0000
     36 H          -2.5359   -0.1945    3.9961 H       1  UNL1        0.0000
     37 H          -2.3862    1.3448    4.8877 H       1  UNL1        0.0000
     38 H          -2.9479    1.3527    3.2104 H       1  UNL1        0.0000
     39 H          -0.8990   -1.1059    2.2636 H       1  UNL1        0.0000
     40 H           0.3376   -0.1364    1.4117 H       1  UNL1        0.0000
     41 H          -1.3770    0.2461    1.2047 H       1  UNL1        0.0000
@<TRIPOS>BOND
     1    41    14    1
     2    25     9    1
     3    40    14    1
     4    14    39    1
     5    14     3    1
     6    28    10    1
     7     9    26    1
     8     9    24    1
     9     9     1    1
    10    10     1    1
    11    10    27    1
    12    10    29    1
    13    38    13    1
    14     3    13    1
    15     3     7    1
    16     1     5    1
    17    13    36    1
    18    13    37    1
    19    20     7    1
    20     7    19    1
    21     7     4    1
    22    15     5    1
    23     5    16    1
    24     5     4    1
    25    35    12    1
    26     2    12    1
    27     2    11    1
    28     2     6    1
    29    31    11    1
    30    34    12    1
    31    12    33    1
    32    30    11    1
    33    11    32    1
    34     4     6    1
    35     4     8    1
    36     6    18    1
    37     6    17    1
    38    21     8    1
    39     8    23    1
    40     8    22    1
