@<TRIPOS>MOLECULE
2,3,4
 41 40 0 0 0
SMALL
GASTEIGER

@<TRIPOS>ATOM
      1 SI         -2.8278    2.9110    3.8765 Si      1  UNL1        0.0000
      2 P          -0.3767    3.5326    5.2457 P.3     1  UNL1        0.0000
      3 P          -0.7471    3.3841    2.0545 P.3     1  UNL1        0.0000
      4 P          -0.8443    0.8602    3.8461 P.3     1  UNL1        0.0000
      5 O          -0.1101    2.9862    6.6961 O.3     1  UNL1        0.0000
      6 C          -0.7130    3.5624    7.8562 C.3     1  UNL1        0.0000
      7 O          -0.2201    5.1073    5.5121 O.3     1  UNL1        0.0000
      8 C          -0.3311    6.0301    4.4456 C.3     1  UNL1        0.0000
      9 O          -2.0297    3.4838    5.1723 O.3     1  UNL1        0.0000
     10 O          -1.0679    2.2838    0.9168 O.3     1  UNL1        0.0000
     11 C          -2.0891    2.5133   -0.0498 C.3     1  UNL1        0.0000
     12 O          -0.6153    4.7653    1.2423 O.3     1  UNL1        0.0000
     13 C           0.6095    5.0566    0.5928 C.3     1  UNL1        0.0000
     14 O          -2.2341    3.7258    2.5786 O.3     1  UNL1        0.0000
     15 O          -0.9716   -0.5602    3.1331 O.3     1  UNL1        0.0000
     16 C          -0.8683   -0.7363    1.7309 C.3     1  UNL1        0.0000
     17 O          -0.8235    0.3953    5.3581 O.3     1  UNL1        0.0000
     18 C          -1.7139   -0.5982    5.8652 C.3     1  UNL1        0.0000
     19 O          -2.4204    1.3454    3.6848 O.3     1  UNL1        0.0000
     20 C          -4.6784    3.1517    4.0216 C.3     1  UNL1        0.0000
     21 H          -0.2543    4.5257    8.0799 H       1  UNL1        0.0000
     22 H          -0.5298    2.8646    8.6724 H       1  UNL1        0.0000
     23 H          -1.7853    3.6950    7.7081 H       1  UNL1        0.0000
     24 H          -0.2037    7.0220    4.8797 H       1  UNL1        0.0000
     25 H          -1.3103    5.9611    3.9645 H       1  UNL1        0.0000
     26 H           0.4488    5.8547    3.7001 H       1  UNL1        0.0000
     27 H          -3.0280    2.0726    0.2913 H       1  UNL1        0.0000
     28 H          -1.7702    2.0350   -0.9761 H       1  UNL1        0.0000
     29 H          -2.2369    3.5832   -0.2123 H       1  UNL1        0.0000
     30 H           0.8214    6.1164    0.7398 H       1  UNL1        0.0000
     31 H           0.5224    4.8472   -0.4753 H       1  UNL1        0.0000
     32 H           1.4267    4.4562    1.0064 H       1  UNL1        0.0000
     33 H          -0.6026   -1.7810    1.5668 H       1  UNL1        0.0000
     34 H          -0.0991   -0.0878    1.3090 H       1  UNL1        0.0000
     35 H          -1.8237   -0.5183    1.2499 H       1  UNL1        0.0000
     36 H          -1.6458   -0.5428    6.9511 H       1  UNL1        0.0000
     37 H          -1.4085   -1.5874    5.5232 H       1  UNL1        0.0000
     38 H          -2.7379   -0.4011    5.5432 H       1  UNL1        0.0000
     39 H          -5.0210    2.8650    5.0053 H       1  UNL1        0.0000
     40 H          -5.2015    2.5525    3.2898 H       1  UNL1        0.0000
     41 H          -4.9349    4.1887    3.8596 H       1  UNL1        0.0000
@<TRIPOS>BOND
     1    28    11    1
     2    31    13    1
     3    29    11    1
     4    11    27    1
     5    11    10    1
     6    13    30    1
     7    13    32    1
     8    13    12    1
     9    10     3    1
    10    12     3    1
    11    35    16    1
    12    34    16    1
    13    33    16    1
    14    16    15    1
    15     3    14    1
    16    14     1    1
    17    15     4    1
    18    40    20    1
    19    19     4    1
    20    19     1    1
    21    26     8    1
    22     4    17    1
    23    41    20    1
    24     1    20    1
    25     1     9    1
    26    25     8    1
    27    20    39    1
    28     8    24    1
    29     8     7    1
    30     9     2    1
    31     2     7    1
    32     2     5    1
    33    17    18    1
    34    37    18    1
    35    38    18    1
    36    18    36    1
    37     5     6    1
    38    23     6    1
    39     6    21    1
    40     6    22    1
