@<TRIPOS>MOLECULE
1,2,3
 122 124 0 0 0
SMALL
GASTEIGER

@<TRIPOS>ATOM
      1 P          13.8740    2.9572    1.9271 P.3     1  UNL1        0.0000
      2 P          11.0279    3.9280    4.2105 P.3     1  UNL1        0.0000
      3 P          13.8553    6.4357    3.3567 P.3     1  UNL1        0.0000
      4 SI         13.8672    1.8311    4.8217 Si      1  UNL1        0.0000
      5 SI         13.1071    4.5686    6.4165 Si      1  UNL1        0.0000
      6 SI         15.8203    4.3984    4.6472 Si      1  UNL1        0.0000
      7 C          14.0750    3.7185    5.0085 C.3     1  UNL1        0.0000
      8 H          13.5270    4.0777    4.1378 H       1  UNL1        0.0000
      9 C          14.0862    1.5578    2.9412 C.3     1  UNL1        0.0000
     10 C          14.4739    0.3353    2.3968 C.2     1  UNL1        0.0000
     11 C          14.7919    0.1623    1.0599 C.2     1  UNL1        0.0000
     12 H          15.0720   -0.8360    0.7498 H       1  UNL1        0.0000
     13 C          14.8245    1.1551    0.0828 C.2     1  UNL1        0.0000
     14 C          14.4225    2.4564    0.3491 C.2     1  UNL1        0.0000
     15 C          11.2862    4.3912    5.8687 C.3     1  UNL1        0.0000
     16 C          10.2192    4.4670    6.7614 C.2     1  UNL1        0.0000
     17 C           8.9365    4.0486    6.4489 C.2     1  UNL1        0.0000
     18 H           8.1853    4.1451    7.2224 H       1  UNL1        0.0000
     19 C           8.5351    3.4529    5.2556 C.2     1  UNL1        0.0000
     20 C           9.3729    3.3815    4.1515 C.2     1  UNL1        0.0000
     21 C          15.4861    6.1179    3.8816 C.3     1  UNL1        0.0000
     22 C          16.4682    7.1048    3.8121 C.2     1  UNL1        0.0000
     23 C          16.2243    8.3920    3.3652 C.2     1  UNL1        0.0000
     24 H          17.0688    9.0683    3.3302 H       1  UNL1        0.0000
     25 C          14.9889    8.9139    2.9887 C.2     1  UNL1        0.0000
     26 C          13.8403    8.1365    2.9599 C.2     1  UNL1        0.0000
     27 C          14.5774   -0.8762    3.2801 C.3     1  UNL1        0.0000
     28 H          14.5421   -1.7862    2.6852 H       1  UNL1        0.0000
     29 H          13.7675   -0.9017    4.0024 H       1  UNL1        0.0000
     30 H          15.5208   -0.8648    3.8232 H       1  UNL1        0.0000
     31 C          15.3123    0.7326   -1.2817 C.3     1  UNL1        0.0000
     32 H          15.2291   -0.3536   -1.3616 H       1  UNL1        0.0000
     33 H          14.6824    1.1631   -2.0622 H       1  UNL1        0.0000
     34 C          16.7740    1.1246   -1.5362 C.3     1  UNL1        0.0000
     35 H          17.0556    0.7802   -2.5343 H       1  UNL1        0.0000
     36 H          16.8733    2.2100   -1.5203 H       1  UNL1        0.0000
     37 C          17.7207    0.5203   -0.5070 C.3     1  UNL1        0.0000
     38 H          17.4739    0.8732    0.4921 H       1  UNL1        0.0000
     39 H          18.7487    0.7995   -0.7278 H       1  UNL1        0.0000
     40 H          17.6526   -0.5656   -0.5138 H       1  UNL1        0.0000
     41 C          14.5111    3.5632   -0.6690 C.3     1  UNL1        0.0000
     42 H          13.5613    4.1040   -0.7028 H       1  UNL1        0.0000
     43 H          14.6982    3.1701   -1.6671 H       1  UNL1        0.0000
     44 C          15.6293    4.5469   -0.3005 C.3     1  UNL1        0.0000
     45 H          15.3678    5.0496    0.6388 H       1  UNL1        0.0000
     46 H          16.5579    3.9933   -0.1325 H       1  UNL1        0.0000
     47 C          15.8490    5.5910   -1.3863 C.3     1  UNL1        0.0000
     48 H          16.1322    5.1162   -2.3241 H       1  UNL1        0.0000
     49 H          16.6391    6.2801   -1.0964 H       1  UNL1        0.0000
     50 H          14.9395    6.1622   -1.5511 H       1  UNL1        0.0000
     51 C          15.1835    0.9916    5.9220 C.3     1  UNL1        0.0000
     52 H          16.1853    1.0979    5.5227 H       1  UNL1        0.0000
     53 H          14.9858   -0.0657    6.0511 H       1  UNL1        0.0000
     54 H          15.1759    1.4403    6.9084 H       1  UNL1        0.0000
     55 C          12.1723    1.1056    5.3500 C.3     1  UNL1        0.0000
     56 H          11.7348    1.6760    6.1627 H       1  UNL1        0.0000
     57 H          12.2723    0.0788    5.6905 H       1  UNL1        0.0000
     58 H          11.4619    1.1114    4.5267 H       1  UNL1        0.0000
     59 C          13.4800    3.6424    8.0440 C.3     1  UNL1        0.0000
     60 H          13.0110    2.6656    8.0745 H       1  UNL1        0.0000
     61 H          13.1428    4.2014    8.9085 H       1  UNL1        0.0000
     62 H          14.5485    3.4989    8.1538 H       1  UNL1        0.0000
     63 C          13.5487    6.4129    6.6911 C.3     1  UNL1        0.0000
     64 H          14.5873    6.6084    6.4481 H       1  UNL1        0.0000
     65 H          13.3964    6.7053    7.7261 H       1  UNL1        0.0000
     66 H          12.9443    7.0684    6.0709 H       1  UNL1        0.0000
     67 C          10.4388    4.9913    8.1530 C.3     1  UNL1        0.0000
     68 H           9.5199    5.4244    8.5428 H       1  UNL1        0.0000
     69 H          11.2154    5.7488    8.1688 H       1  UNL1        0.0000
     70 H          10.7349    4.1797    8.8162 H       1  UNL1        0.0000
     71 C           7.1410    2.8731    5.2572 C.3     1  UNL1        0.0000
     72 H           6.4474    3.6341    5.6248 H       1  UNL1        0.0000
     73 H           6.8212    2.5891    4.2579 H       1  UNL1        0.0000
     74 C           7.0512    1.6445    6.1733 C.3     1  UNL1        0.0000
     75 H           7.3626    1.9200    7.1830 H       1  UNL1        0.0000
     76 H           6.0095    1.3185    6.2232 H       1  UNL1        0.0000
     77 C           7.9190    0.4928    5.6824 C.3     1  UNL1        0.0000
     78 H           7.5899    0.1534    4.7023 H       1  UNL1        0.0000
     79 H           7.8582   -0.3482    6.3698 H       1  UNL1        0.0000
     80 H           8.9587    0.8047    5.6105 H       1  UNL1        0.0000
     81 C           8.9410    2.7415    2.8579 C.3     1  UNL1        0.0000
     82 H           8.4106    1.8079    3.0591 H       1  UNL1        0.0000
     83 H           9.8342    2.4884    2.2761 H       1  UNL1        0.0000
     84 C           8.0507    3.6562    2.0086 C.3     1  UNL1        0.0000
     85 H           7.2138    4.0211    2.6079 H       1  UNL1        0.0000
     86 H           8.6311    4.5246    1.6962 H       1  UNL1        0.0000
     87 C           7.5243    2.9317    0.7765 C.3     1  UNL1        0.0000
     88 H           8.3500    2.6004    0.1521 H       1  UNL1        0.0000
     89 H           6.8947    3.5944    0.1876 H       1  UNL1        0.0000
     90 H           6.9356    2.0609    1.0612 H       1  UNL1        0.0000
     91 C          17.8740    6.7921    4.2418 C.3     1  UNL1        0.0000
     92 H          18.5675    7.5320    3.8485 H       1  UNL1        0.0000
     93 H          18.1797    5.8107    3.8936 H       1  UNL1        0.0000
     94 H          17.9443    6.8070    5.3279 H       1  UNL1        0.0000
     95 C          14.9765   10.3775    2.6213 C.3     1  UNL1        0.0000
     96 H          15.9773   10.6657    2.2917 H       1  UNL1        0.0000
     97 H          14.2975   10.5660    1.7887 H       1  UNL1        0.0000
     98 C          14.5863   11.2576    3.8137 C.3     1  UNL1        0.0000
     99 H          15.2728   11.0590    4.6403 H       1  UNL1        0.0000
    100 H          13.5819   10.9959    4.1487 H       1  UNL1        0.0000
    101 C          14.6305   12.7372    3.4546 C.3     1  UNL1        0.0000
    102 H          15.6318   13.0268    3.1424 H       1  UNL1        0.0000
    103 H          14.3482   13.3470    4.3099 H       1  UNL1        0.0000
    104 H          13.9436   12.9524    2.6385 H       1  UNL1        0.0000
    105 C          12.4796    8.7178    2.6769 C.3     1  UNL1        0.0000
    106 H          11.9685    8.1174    1.9207 H       1  UNL1        0.0000
    107 H          12.5550    9.7325    2.2902 H       1  UNL1        0.0000
    108 C          11.6308    8.7380    3.9540 C.3     1  UNL1        0.0000
    109 H          12.1989    9.2175    4.7569 H       1  UNL1        0.0000
    110 H          11.4255    7.7058    4.2608 H       1  UNL1        0.0000
    111 C          10.3147    9.4749    3.7479 C.3     1  UNL1        0.0000
    112 H          10.4952   10.5090    3.4600 H       1  UNL1        0.0000
    113 H           9.7274    9.4699    4.6635 H       1  UNL1        0.0000
    114 H           9.7332    8.9958    2.9648 H       1  UNL1        0.0000
    115 C          16.8555    3.3567    3.4140 C.3     1  UNL1        0.0000
    116 H          16.6483    2.2982    3.5244 H       1  UNL1        0.0000
    117 H          17.9208    3.4965    3.5735 H       1  UNL1        0.0000
    118 H          16.6390    3.6218    2.3829 H       1  UNL1        0.0000
    119 C          16.7912    4.4292    6.2919 C.3     1  UNL1        0.0000
    120 H          16.6537    3.4912    6.8167 H       1  UNL1        0.0000
    121 H          16.4625    5.2239    6.9514 H       1  UNL1        0.0000
    122 H          17.8552    4.5501    6.1275 H       1  UNL1        0.0000
@<TRIPOS>BOND
     1    35    34    1
     2    48    47    1
     3    33    31    1
     4    43    41    1
     5    50    47    1
     6    34    36    1
     7    34    31    1
     8    34    37    1
     9    47    49    1
    10    47    44    1
    11    32    31    1
    12    31    13    1
    13    39    37    1
    14    42    41    1
    15    41    44    1
    16    41    14    1
    17    40    37    1
    18    37    38    1
    19    44    46    1
    20    44    45    1
    21    13    14    2
    22    13    11    1
    23    88    87    1
    24    89    87    1
    25    14     1    1
    26    12    11    1
    27    87    90    1
    28    87    84    1
    29    11    10    2
    30    86    84    1
    31    97    95    1
    32   106   105    1
    33     1     9    1
    34    84    85    1
    35    84    81    1
    36    83    81    1
    37   107   105    1
    38    96    95    1
    39   118   115    1
    40    10     9    1
    41    10    27    1
    42    95    25    1
    43    95    98    1
    44   104   101    1
    45   105    26    1
    46   105   108    1
    47    28    27    1
    48    81    82    1
    49    81    20    1
    50     9     4    1
    51    26    25    2
    52    26     3    1
    53   114   111    1
    54    25    23    1
    55   102   101    1
    56    27    30    1
    57    27    29    1
    58    24    23    1
    59     3    21    1
    60    23    22    2
    61   115   116    1
    62   115   117    1
    63   115     6    1
    64   101    98    1
    65   101   103    1
    66   112   111    1
    67   111   108    1
    68   111   113    1
    69    22    21    1
    70    22    91    1
    71    98   100    1
    72    98    99    1
    73    92    91    1
    74    21     6    1
    75    93    91    1
    76   108   110    1
    77   108   109    1
    78     8     7    1
    79    20     2    1
    80    20    19    2
    81     2    15    1
    82    91    94    1
    83    73    71    1
    84    58    55    1
    85     6     7    1
    86     6   119    1
    87    78    77    1
    88     4     7    1
    89     4    55    1
    90     4    51    1
    91     7     5    1
    92    19    71    1
    93    19    17    1
    94    71    72    1
    95    71    74    1
    96    55    57    1
    97    55    56    1
    98    52    51    1
    99    80    77    1
   100    77    74    1
   101    77    79    1
   102    15     5    1
   103    15    16    1
   104    51    53    1
   105    51    54    1
   106    66    63    1
   107   122   119    1
   108    74    76    1
   109    74    75    1
   110   119   120    1
   111   119   121    1
   112     5    63    1
   113     5    59    1
   114    64    63    1
   115    17    16    2
   116    17    18    1
   117    63    65    1
   118    16    67    1
   119    59    60    1
   120    59    62    1
   121    59    61    1
   122    67    69    1
   123    67    68    1
   124    67    70    1
