@<TRIPOS>MOLECULE
1,2,3
 105 108 0 0 0
SMALL
GASTEIGER

@<TRIPOS>ATOM
      1 P          14.5549    3.0744    9.4665 P.3     1  UNL1        0.0000
      2 P          13.1033    5.5525   11.1060 P.3     1  UNL1        0.0000
      3 P          11.2599    3.2844    9.5667 P.3     1  UNL1        0.0000
      4 SI         12.9536    2.7198   12.0842 Si      1  UNL1        0.0000
      5 C           8.9309    1.9275   10.9603 C.2     1  UNL1        0.0000
      6 H           8.0863    1.4867   11.4746 H       1  UNL1        0.0000
      7 C          14.5901    2.4982   11.0950 C.3     1  UNL1        0.0000
      8 C          15.7570    1.9324   11.6133 C.2     1  UNL1        0.0000
      9 C          16.8684    1.6518   10.8304 C.2     1  UNL1        0.0000
     10 H          17.7058    1.1794   11.3284 H       1  UNL1        0.0000
     11 C          17.0222    1.9127    9.4710 C.2     1  UNL1        0.0000
     12 C          16.0673    2.6145    8.7510 C.2     1  UNL1        0.0000
     13 C          13.0130    4.5782   12.5476 C.2     1  UNL1        0.0000
     14 C          12.9779    5.1613   13.8100 C.2     1  UNL1        0.0000
     15 C          12.9876    6.5335   14.0100 C.2     1  UNL1        0.0000
     16 H          12.9441    6.8789   15.0344 H       1  UNL1        0.0000
     17 C          13.0587    7.5121   13.0227 C.2     1  UNL1        0.0000
     18 C          13.1372    7.1940   11.6729 C.2     1  UNL1        0.0000
     19 C          11.2682    2.6135   11.1592 C.3     1  UNL1        0.0000
     20 C          10.0911    2.0914   11.7026 C.2     1  UNL1        0.0000
     21 C           8.7291    2.2714    9.6247 C.2     1  UNL1        0.0000
     22 C           9.6920    2.9539    8.8962 C.2     1  UNL1        0.0000
     23 C          12.9312    1.0555   13.0190 C.ar    1  UNL1        0.0000
     24 C          12.9744    0.8261   14.3855 C.ar    1  UNL1        0.0000
     25 H          13.0285    1.6527   15.0738 H       1  UNL1        0.0000
     26 C          12.9528   -0.4582   14.9024 C.ar    1  UNL1        0.0000
     27 H          12.9871   -0.6058   15.9724 H       1  UNL1        0.0000
     28 C          12.8888   -1.5497   14.0547 C.ar    1  UNL1        0.0000
     29 H          12.8720   -2.5522   14.4564 H       1  UNL1        0.0000
     30 C          12.8478   -1.3433   12.6860 C.ar    1  UNL1        0.0000
     31 H          12.7992   -2.1865   12.0120 H       1  UNL1        0.0000
     32 C          12.8691   -0.0572   12.1813 C.ar    1  UNL1        0.0000
     33 H          12.8360    0.0902   11.1102 H       1  UNL1        0.0000
     34 C          15.8800    1.6205   13.0782 C.3     1  UNL1        0.0000
     35 H          15.2984    2.3173   13.6747 H       1  UNL1        0.0000
     36 H          16.9215    1.6847   13.3870 H       1  UNL1        0.0000
     37 H          15.5267    0.6123   13.2890 H       1  UNL1        0.0000
     38 C          18.3258    1.4955    8.8411 C.3     1  UNL1        0.0000
     39 H          18.6844    0.5845    9.3260 H       1  UNL1        0.0000
     40 H          18.1940    1.2768    7.7818 H       1  UNL1        0.0000
     41 C          19.3838    2.5931    9.0075 C.3     1  UNL1        0.0000
     42 H          19.5270    2.7911   10.0721 H       1  UNL1        0.0000
     43 H          19.0230    3.5167    8.5497 H       1  UNL1        0.0000
     44 C          20.7112    2.1926    8.3772 C.3     1  UNL1        0.0000
     45 H          21.0926    1.2816    8.8339 H       1  UNL1        0.0000
     46 H          21.4500    2.9792    8.5120 H       1  UNL1        0.0000
     47 H          20.5907    2.0150    7.3106 H       1  UNL1        0.0000
     48 C          16.1917    2.9462    7.2892 C.3     1  UNL1        0.0000
     49 H          17.2318    3.0914    6.9974 H       1  UNL1        0.0000
     50 H          15.6554    3.8814    7.0904 H       1  UNL1        0.0000
     51 C          15.5588    1.8406    6.4371 C.3     1  UNL1        0.0000
     52 H          16.0694    0.8929    6.6279 H       1  UNL1        0.0000
     53 H          14.5153    1.7210    6.7482 H       1  UNL1        0.0000
     54 C          15.6152    2.1708    4.9523 C.3     1  UNL1        0.0000
     55 H          15.0709    3.0896    4.7495 H       1  UNL1        0.0000
     56 H          15.1682    1.3711    4.3663 H       1  UNL1        0.0000
     57 H          16.6456    2.3015    4.6273 H       1  UNL1        0.0000
     58 C          12.9229    4.2850   15.0271 C.3     1  UNL1        0.0000
     59 H          12.8443    4.8798   15.9338 H       1  UNL1        0.0000
     60 H          13.8263    3.6805   15.0932 H       1  UNL1        0.0000
     61 H          12.0625    3.6208   14.9769 H       1  UNL1        0.0000
     62 C          12.9948    8.9480   13.4769 C.3     1  UNL1        0.0000
     63 H          13.3482    9.0177   14.5080 H       1  UNL1        0.0000
     64 H          13.6411    9.5743   12.8630 H       1  UNL1        0.0000
     65 C          11.5604    9.4952   13.4117 C.3     1  UNL1        0.0000
     66 H          11.5871   10.5648   13.6332 H       1  UNL1        0.0000
     67 H          11.1690    9.3719   12.4001 H       1  UNL1        0.0000
     68 C          10.6242    8.8024   14.3930 C.3     1  UNL1        0.0000
     69 H          10.5548    7.7401   14.1706 H       1  UNL1        0.0000
     70 H           9.6269    9.2318   14.3290 H       1  UNL1        0.0000
     71 H          10.9819    8.9209   15.4140 H       1  UNL1        0.0000
     72 C          13.3477    8.2294   10.6032 C.3     1  UNL1        0.0000
     73 H          12.9693    7.8448    9.6501 H       1  UNL1        0.0000
     74 H          12.8154    9.1543   10.8253 H       1  UNL1        0.0000
     75 C          14.8448    8.5191   10.4406 C.3     1  UNL1        0.0000
     76 H          15.2562    8.8811   11.3864 H       1  UNL1        0.0000
     77 H          15.3556    7.5819   10.2003 H       1  UNL1        0.0000
     78 C          15.1008    9.5413    9.3422 C.3     1  UNL1        0.0000
     79 H          14.7283    9.1735    8.3896 H       1  UNL1        0.0000
     80 H          16.1664    9.7333    9.2418 H       1  UNL1        0.0000
     81 H          14.6004   10.4809    9.5686 H       1  UNL1        0.0000
     82 C          10.0116    1.6939   13.1497 C.3     1  UNL1        0.0000
     83 H           8.9866    1.7794   13.5048 H       1  UNL1        0.0000
     84 H          10.6442    2.3268   13.7646 H       1  UNL1        0.0000
     85 H          10.3309    0.6616   13.2842 H       1  UNL1        0.0000
     86 C           7.4002    1.8770    9.0338 C.3     1  UNL1        0.0000
     87 H           7.2179    2.3895    8.0910 H       1  UNL1        0.0000
     88 H           6.6020    2.1566    9.7267 H       1  UNL1        0.0000
     89 C           7.3357    0.3636    8.7943 C.3     1  UNL1        0.0000
     90 H           7.4701   -0.1603    9.7429 H       1  UNL1        0.0000
     91 H           8.1578    0.0668    8.1392 H       1  UNL1        0.0000
     92 C           6.0092   -0.0454    8.1675 C.3     1  UNL1        0.0000
     93 H           5.1791    0.2319    8.8139 H       1  UNL1        0.0000
     94 H           5.9768   -1.1210    8.0099 H       1  UNL1        0.0000
     95 H           5.8723    0.4459    7.2064 H       1  UNL1        0.0000
     96 C           9.5174    3.4113    7.4741 C.3     1  UNL1        0.0000
     97 H           8.5006    3.7648    7.2928 H       1  UNL1        0.0000
     98 H          10.1956    4.2540    7.2927 H       1  UNL1        0.0000
     99 C           9.8655    2.2961    6.4833 C.3     1  UNL1        0.0000
    100 H           9.1944    1.4482    6.6342 H       1  UNL1        0.0000
    101 H          10.8848    1.9552    6.6907 H       1  UNL1        0.0000
    102 C           9.7692    2.7754    5.0416 C.3     1  UNL1        0.0000
    103 H           8.7625    3.1246    4.8205 H       1  UNL1        0.0000
    104 H          10.0122    1.9679    4.3547 H       1  UNL1        0.0000
    105 H          10.4632    3.5935    4.8673 H       1  UNL1        0.0000
@<TRIPOS>BOND
     1   104   102    1
     2    56    54    1
     3    57    54    1
     4    55    54    1
     5   103   102    1
     6   105   102    1
     7    54    51    1
     8   102    99    1
     9    51    52    1
    10    51    53    1
    11    51    48    1
    12    99   100    1
    13    99   101    1
    14    99    96    1
    15    49    48    1
    16    50    48    1
    17    95    92    1
    18    48    12    1
    19    98    96    1
    20    97    96    1
    21    47    44    1
    22    96    22    1
    23    40    38    1
    24    94    92    1
    25    87    86    1
    26    91    89    1
    27    92    89    1
    28    92    93    1
    29    44    46    1
    30    44    45    1
    31    44    41    1
    32    79    78    1
    33    43    41    1
    34    12     1    1
    35    12    11    2
    36    89    86    1
    37    89    90    1
    38    38    41    1
    39    38    39    1
    40    38    11    1
    41    22     3    1
    42    22    21    2
    43    41    42    1
    44    86    21    1
    45    86    88    1
    46    80    78    1
    47    78    81    1
    48    78    75    1
    49     1     7    1
    50    11     9    1
    51     3    19    1
    52    21     5    1
    53    73    72    1
    54    77    75    1
    55    75    72    1
    56    75    76    1
    57    72    74    1
    58    72    18    1
    59     9    10    1
    60     9     8    2
    61     5     6    1
    62     5    20    2
    63     7     8    1
    64     7     4    1
    65     2    18    1
    66     2    13    2
    67    33    32    1
    68    19    20    1
    69    19     4    1
    70     8    34    1
    71    18    17    2
    72    20    82    1
    73    31    30    1
    74     4    13    1
    75     4    23    1
    76    32    30   ar
    77    32    23   ar
    78    67    65    1
    79    13    14    1
    80    30    28   ar
    81    64    62    1
    82    23    24   ar
    83    17    62    1
    84    17    15    1
    85    34    37    1
    86    34    36    1
    87    34    35    1
    88    82    85    1
    89    82    83    1
    90    82    84    1
    91    65    62    1
    92    65    66    1
    93    65    68    1
    94    62    63    1
    95    14    15    2
    96    14    58    1
    97    15    16    1
    98    28    29    1
    99    28    26   ar
   100    69    68    1
   101    70    68    1
   102    24    26   ar
   103    24    25    1
   104    68    71    1
   105    26    27    1
   106    61    58    1
   107    58    60    1
   108    58    59    1
