@<TRIPOS>MOLECULE
1,2,3
 83 88 0 0 0
SMALL
GASTEIGER

@<TRIPOS>ATOM
      1 P          -1.9689   16.5467   11.7737 P.3     1  UNL1       -0.0433
      2 P           0.4747   16.7003   13.4310 P.3     1  UNL1       -0.0433
      3 P          -0.5089   13.9756   12.0884 P.3     1  UNL1       -0.0433
      4 C          -2.8591   18.1543   11.7898 C.ar    1  UNL1       -0.0189
      5 C          -3.7344   18.3835   12.8432 C.ar    1  UNL1       -0.0538
      6 H          -3.7932   17.6432   13.6258 H       1  UNL1        0.0624
      7 C          -4.4954   19.5342   12.9113 C.ar    1  UNL1       -0.0612
      8 H          -5.1697   19.6922   13.7420 H       1  UNL1        0.0618
      9 C          -4.3885   20.4874   11.9133 C.ar    1  UNL1       -0.0617
     10 H          -4.9721   21.3954   11.9612 H       1  UNL1        0.0618
     11 C          -3.5322   20.2657   10.8488 C.ar    1  UNL1       -0.0612
     12 H          -3.4523   21.0012   10.0607 H       1  UNL1        0.0618
     13 C          -2.7811   19.1058   10.7779 C.ar    1  UNL1       -0.0538
     14 H          -2.1397   18.9558    9.9231 H       1  UNL1        0.0624
     15 C          -3.1826   15.7635   10.6496 C.ar    1  UNL1       -0.0189
     16 C          -4.4489   15.5984   11.2081 C.ar    1  UNL1       -0.0538
     17 H          -4.6183   15.9523   12.2163 H       1  UNL1        0.0624
     18 C          -5.4700   14.9967   10.5029 C.ar    1  UNL1       -0.0612
     19 H          -6.4473   14.8844   10.9516 H       1  UNL1        0.0618
     20 C          -5.2391   14.5320    9.2175 C.ar    1  UNL1       -0.0617
     21 H          -6.0308   14.0511    8.6615 H       1  UNL1        0.0618
     22 C          -3.9889   14.6912    8.6501 C.ar    1  UNL1       -0.0612
     23 H          -3.8018   14.3332    7.6474 H       1  UNL1        0.0618
     24 C          -2.9696   15.3098    9.3547 C.ar    1  UNL1       -0.0538
     25 H          -2.0112   15.4310    8.8716 H       1  UNL1        0.0624
     26 C           0.2760   18.5157   13.4206 C.ar    1  UNL1       -0.0189
     27 C           1.2146   19.4328   12.9501 C.ar    1  UNL1       -0.0538
     28 H           2.1712   19.1038   12.5676 H       1  UNL1        0.0624
     29 C           0.9407   20.7879   12.9789 C.ar    1  UNL1       -0.0612
     30 H           1.6735   21.4895   12.6051 H       1  UNL1        0.0618
     31 C          -0.2630   21.2502   13.4868 C.ar    1  UNL1       -0.0617
     32 H          -0.4726   22.3098   13.4995 H       1  UNL1        0.0618
     33 C          -1.1868   20.3496   13.9859 C.ar    1  UNL1       -0.0612
     34 H          -2.1205   20.7055   14.3960 H       1  UNL1        0.0618
     35 C          -0.9135   18.9942   13.9502 C.ar    1  UNL1       -0.0538
     36 H          -1.6132   18.2682   14.3362 H       1  UNL1        0.0624
     37 C           1.7747   16.4968   14.6853 C.ar    1  UNL1       -0.0189
     38 C           2.0873   15.1777   14.9990 C.ar    1  UNL1       -0.0538
     39 H           1.5523   14.3882   14.4892 H       1  UNL1        0.0624
     40 C           3.0458   14.8837   15.9478 C.ar    1  UNL1       -0.0612
     41 H           3.2825   13.8538   16.1761 H       1  UNL1        0.0618
     42 C           3.6950   15.9138   16.6114 C.ar    1  UNL1       -0.0617
     43 H           4.4406   15.6913   17.3612 H       1  UNL1        0.0618
     44 C           3.3796   17.2289   16.3161 C.ar    1  UNL1       -0.0612
     45 H           3.8780   18.0333   16.8388 H       1  UNL1        0.0618
     46 C           2.4253   17.5244   15.3564 C.ar    1  UNL1       -0.0538
     47 H           2.1856   18.5553   15.1396 H       1  UNL1        0.0624
     48 C          -1.6333   12.8215   11.2296 C.ar    1  UNL1       -0.0189
     49 C          -2.9856   12.8004   11.5242 C.ar    1  UNL1       -0.0538
     50 H          -3.3626   13.4913   12.2608 H       1  UNL1        0.0624
     51 C          -3.8367   11.9264   10.8712 C.ar    1  UNL1       -0.0612
     52 H          -4.8912   11.9228   11.1075 H       1  UNL1        0.0618
     53 C          -3.3364   11.0613    9.9149 C.ar    1  UNL1       -0.0617
     54 H          -3.9976   10.3794    9.4000 H       1  UNL1        0.0618
     55 C          -1.9812   11.0664    9.6217 C.ar    1  UNL1       -0.0612
     56 H          -1.5870   10.3843    8.8814 H       1  UNL1        0.0618
     57 C          -1.1325   11.9371   10.2764 C.ar    1  UNL1       -0.0538
     58 H          -0.0727   11.9272   10.0574 H       1  UNL1        0.0624
     59 C           0.6674   12.7001   12.6673 C.ar    1  UNL1       -0.0189
     60 C           2.0543   12.7907   12.6049 C.ar    1  UNL1       -0.0538
     61 H           2.5312   13.6215   12.1047 H       1  UNL1        0.0624
     62 C           2.8561   11.8177   13.1758 C.ar    1  UNL1       -0.0612
     63 H           3.9315   11.9100   13.1148 H       1  UNL1        0.0618
     64 C           2.2889   10.7337   13.8218 C.ar    1  UNL1       -0.0617
     65 H           2.9165    9.9766   14.2689 H       1  UNL1        0.0618
     66 C           0.9091   10.6233   13.8828 C.ar    1  UNL1       -0.0612
     67 H           0.4551    9.7743   14.3745 H       1  UNL1        0.0618
     68 C           0.1119   11.5962   13.3128 C.ar    1  UNL1       -0.0538
     69 H          -0.9641   11.4963   13.3455 H       1  UNL1        0.0624
     70 C          -0.5801   17.0249   10.6531 C.3     1  UNL1       -0.0183
     71 H          -0.9596   17.0883    9.6279 H       1  UNL1        0.0324
     72 H          -0.2903   18.0347   10.9720 H       1  UNL1        0.0324
     73 C           1.5052   16.4197   11.9395 C.3     1  UNL1       -0.0183
     74 H           2.1639   17.2783   11.7785 H       1  UNL1        0.0324
     75 H           2.1367   15.5576   12.1707 H       1  UNL1        0.0324
     76 C           0.3244   14.6583   10.5894 C.3     1  UNL1       -0.0183
     77 H           1.2327   14.0800   10.3878 H       1  UNL1        0.0324
     78 H          -0.3631   14.4989    9.7533 H       1  UNL1        0.0324
     79 C           0.6745   16.1432   10.6814 C.3     1  UNL1       -0.0187
     80 C           1.5303   16.5038    9.4546 C.3     1  UNL1       -0.0586
     81 H           1.7219   17.5751    9.4232 H       1  UNL1        0.0235
     82 H           1.0242   16.2206    8.5330 H       1  UNL1        0.0235
     83 H           2.4872   15.9853    9.4891 H       1  UNL1        0.0235
@<TRIPOS>BOND
     1    23    22    1
     2    82    80    1
     3    22    20   ar
     4    22    24   ar
     5    21    20    1
     6    25    24    1
     7    56    55    1
     8    20    18   ar
     9    24    15   ar
    10    54    53    1
    11    81    80    1
    12    80    83    1
    13    80    79    1
    14    55    53   ar
    15    55    57   ar
    16    71    70    1
    17    78    76    1
    18    53    51   ar
    19    14    13    1
    20    58    57    1
    21    12    11    1
    22    57    48   ar
    23    77    76    1
    24    18    19    1
    25    18    16   ar
    26    76    79    1
    27    76     3    1
    28    15    16   ar
    29    15     1    1
    30    70    79    1
    31    70    72    1
    32    70     1    1
    33    79    73    1
    34    13    11   ar
    35    13     4   ar
    36    11     9   ar
    37    51    52    1
    38    51    49   ar
    39    16    17    1
    40    48    49   ar
    41    48     3    1
    42    49    50    1
    43     1     4    1
    44    74    73    1
    45     4     5   ar
    46     9    10    1
    47     9     7   ar
    48    73    75    1
    49    73     2    1
    50     3    59    1
    51    61    60    1
    52    28    27    1
    53    60    59   ar
    54    60    62   ar
    55    30    29    1
    56    59    68   ar
    57     5     7   ar
    58     5     6    1
    59     7     8    1
    60    27    29   ar
    61    27    26   ar
    62    29    31   ar
    63    63    62    1
    64    62    64   ar
    65    68    69    1
    66    68    66   ar
    67    26     2    1
    68    26    35   ar
    69     2    37    1
    70    31    32    1
    71    31    33   ar
    72    64    66   ar
    73    64    65    1
    74    66    67    1
    75    35    33   ar
    76    35    36    1
    77    33    34    1
    78    39    38    1
    79    37    38   ar
    80    37    46   ar
    81    38    40   ar
    82    47    46    1
    83    46    44   ar
    84    40    41    1
    85    40    42   ar
    86    44    42   ar
    87    44    45    1
    88    42    43    1
