@<TRIPOS>MOLECULE
1,2,3
 68 67 0 0 0
SMALL
GASTEIGER

@<TRIPOS>ATOM
      1 P          -5.0483   -4.5732   -4.8266 P.3     1  UNL1        0.0000
      2 P          -4.3229   -1.2649   -4.0895 P.3     1  UNL1        0.0000
      3 P          -6.9124   -2.8112   -2.2998 P.3     1  UNL1        0.0000
      4 SI         -7.0396   -2.1852   -5.3847 Si      1  UNL1        0.0000
      5 C          -8.2790   -1.6131   -6.7032 C.3     1  UNL1        0.0000
      6 H          -9.1623   -2.2407   -6.7117 H       1  UNL1        0.0000
      7 H          -7.8459   -1.6478   -7.6960 H       1  UNL1        0.0000
      8 H          -8.6054   -0.5951   -6.5255 H       1  UNL1        0.0000
      9 C          -6.5706   -4.0088   -5.7120 C.3     1  UNL1        0.0000
     10 H          -7.4000   -4.6464   -5.4097 H       1  UNL1        0.0000
     11 H          -6.4160   -4.1674   -6.7797 H       1  UNL1        0.0000
     12 C          -5.4495   -1.1332   -5.5364 C.3     1  UNL1        0.0000
     13 H          -4.9164   -1.4479   -6.4318 H       1  UNL1        0.0000
     14 H          -5.7012   -0.0802   -5.6616 H       1  UNL1        0.0000
     15 C          -7.8235   -1.9443   -3.6558 C.3     1  UNL1        0.0000
     16 H          -7.8545   -0.8773   -3.4386 H       1  UNL1        0.0000
     17 H          -8.8529   -2.3031   -3.6558 H       1  UNL1        0.0000
     18 C          -5.2073   -6.4677   -4.9844 C.3     1  UNL1        0.0000
     19 C          -6.1132   -7.0047   -3.8735 C.3     1  UNL1        0.0000
     20 H          -6.0347   -8.0894   -3.8207 H       1  UNL1        0.0000
     21 H          -7.1550   -6.7661   -4.0776 H       1  UNL1        0.0000
     22 H          -5.8567   -6.5974   -2.8988 H       1  UNL1        0.0000
     23 C          -5.8027   -6.9192   -6.3193 C.3     1  UNL1        0.0000
     24 H          -6.8421   -6.6210   -6.4272 H       1  UNL1        0.0000
     25 H          -5.7681   -8.0067   -6.3589 H       1  UNL1        0.0000
     26 H          -5.2440   -6.5472   -7.1738 H       1  UNL1        0.0000
     27 C          -3.7932   -7.0503   -4.8635 C.3     1  UNL1        0.0000
     28 H          -3.8390   -8.0941   -4.5581 H       1  UNL1        0.0000
     29 H          -3.1870   -6.5099   -4.1384 H       1  UNL1        0.0000
     30 H          -3.2792   -7.0105   -5.8205 H       1  UNL1        0.0000
     31 C          -3.8222   -4.2911   -6.1636 C.3     1  UNL1        0.0000
     32 H          -3.8255   -3.2355   -6.4118 H       1  UNL1        0.0000
     33 H          -4.0673   -4.8652   -7.0544 H       1  UNL1        0.0000
     34 H          -2.8283   -4.5642   -5.8171 H       1  UNL1        0.0000
     35 C          -2.6990   -0.5092   -4.7514 C.3     1  UNL1        0.0000
     36 C          -1.8639   -1.5803   -5.4542 C.3     1  UNL1        0.0000
     37 H          -0.8384   -1.2347   -5.5705 H       1  UNL1        0.0000
     38 H          -2.2501   -1.7848   -6.4500 H       1  UNL1        0.0000
     39 H          -1.8504   -2.5094   -4.8897 H       1  UNL1        0.0000
     40 C          -2.9611    0.6234   -5.7461 C.3     1  UNL1        0.0000
     41 H          -2.0041    1.0570   -6.0315 H       1  UNL1        0.0000
     42 H          -3.5622    1.4214   -5.3181 H       1  UNL1        0.0000
     43 H          -3.4426    0.2715   -6.6542 H       1  UNL1        0.0000
     44 C          -1.9109    0.0673   -3.5715 C.3     1  UNL1        0.0000
     45 H          -2.4048    0.9412   -3.1552 H       1  UNL1        0.0000
     46 H          -0.9262    0.3820   -3.9135 H       1  UNL1        0.0000
     47 H          -1.7711   -0.6630   -2.7811 H       1  UNL1        0.0000
     48 C          -4.9535    0.1576   -3.1225 C.3     1  UNL1        0.0000
     49 H          -6.0089   -0.0088   -2.9364 H       1  UNL1        0.0000
     50 H          -4.8333    1.0849   -3.6790 H       1  UNL1        0.0000
     51 H          -4.4397    0.2388   -2.1688 H       1  UNL1        0.0000
     52 C          -7.6495   -2.0015   -0.7331 C.3     1  UNL1        0.0000
     53 C          -6.8505   -0.7399   -0.4073 C.3     1  UNL1        0.0000
     54 H          -5.7818   -0.9475   -0.4376 H       1  UNL1        0.0000
     55 H          -7.1012   -0.3906    0.5927 H       1  UNL1        0.0000
     56 H          -7.0786    0.0667   -1.0998 H       1  UNL1        0.0000
     57 C          -9.1243   -1.6361   -0.8919 C.3     1  UNL1        0.0000
     58 H          -9.4812   -1.2114    0.0449 H       1  UNL1        0.0000
     59 H          -9.7418   -2.5038   -1.1095 H       1  UNL1        0.0000
     60 H          -9.2810   -0.8911   -1.6672 H       1  UNL1        0.0000
     61 C          -7.5026   -2.9673    0.4445 C.3     1  UNL1        0.0000
     62 H          -7.9368   -2.5158    1.3354 H       1  UNL1        0.0000
     63 H          -6.4556   -3.1651    0.6576 H       1  UNL1        0.0000
     64 H          -8.0205   -3.9070    0.2706 H       1  UNL1        0.0000
     65 C          -7.8835   -4.3738   -2.3378 C.3     1  UNL1        0.0000
     66 H          -7.8275   -4.7745   -3.3451 H       1  UNL1        0.0000
     67 H          -8.9266   -4.1881   -2.0896 H       1  UNL1        0.0000
     68 H          -7.4779   -5.1137   -1.6525 H       1  UNL1        0.0000
@<TRIPOS>BOND
     1     7     5    1
     2    26    23    1
     3    33    31    1
     4    11     9    1
     5     6     5    1
     6     5     8    1
     7     5     4    1
     8    43    40    1
     9    38    36    1
    10    13    12    1
    11    24    23    1
    12    32    31    1
    13    25    23    1
    14    23    18    1
    15    31    34    1
    16    31     1    1
    17    41    40    1
    18    30    27    1
    19    40    42    1
    20    40    35    1
    21     9    10    1
    22     9     4    1
    23     9     1    1
    24    14    12    1
    25    37    36    1
    26    12     4    1
    27    12     2    1
    28    36    39    1
    29    36    35    1
    30     4    15    1
    31    18    27    1
    32    18     1    1
    33    18    19    1
    34    27    28    1
    35    27    29    1
    36    35     2    1
    37    35    44    1
    38     2    48    1
    39    21    19    1
    40    46    44    1
    41    19    20    1
    42    19    22    1
    43    50    48    1
    44    15    17    1
    45    15    16    1
    46    15     3    1
    47    44    45    1
    48    44    47    1
    49    66    65    1
    50    48    49    1
    51    48    51    1
    52    65     3    1
    53    65    67    1
    54    65    68    1
    55     3    52    1
    56    60    57    1
    57    59    57    1
    58    56    53    1
    59    57    52    1
    60    57    58    1
    61    52    53    1
    62    52    61    1
    63    54    53    1
    64    53    55    1
    65    64    61    1
    66    61    63    1
    67    61    62    1
