@<TRIPOS>MOLECULE
1,2,3
 83 88 0 0 0
SMALL
GASTEIGER

@<TRIPOS>ATOM
      1 P           6.3756    6.0526    6.3179 P.3     1  UNL1        0.0000
      2 P           3.6387    4.7043    5.7648 P.3     1  UNL1        0.0000
      3 P           5.1595    6.0733    3.4348 P.3     1  UNL1        0.0000
      4 SI          6.1886    3.5380    4.7414 Si      1  UNL1        0.0000
      5 C           7.3126    7.8387    3.5241 C.ar    1  UNL1        0.0000
      6 H           6.8557    8.1621    4.4495 H       1  UNL1        0.0000
      7 C           4.1044    6.5036    2.0059 C.ar    1  UNL1        0.0000
      8 C           7.5427    7.4061    6.6937 C.ar    1  UNL1        0.0000
      9 C           6.7042    6.8262    2.7954 C.ar    1  UNL1        0.0000
     10 C           8.4086    7.0558    1.1129 C.ar    1  UNL1        0.0000
     11 H           8.8277    6.7603    0.1616 H       1  UNL1        0.0000
     12 C           7.0565    1.8820    4.3921 C.3     1  UNL1        0.0000
     13 H           7.4135    1.4264    5.3069 H       1  UNL1        0.0000
     14 H           7.9073    2.0232    3.7384 H       1  UNL1        0.0000
     15 H           6.3864    1.1801    3.9124 H       1  UNL1        0.0000
     16 C           4.7710    3.2827    5.9922 C.3     1  UNL1        0.0000
     17 H           4.2535    2.3297    5.8925 H       1  UNL1        0.0000
     18 H           5.1616    3.3616    7.0098 H       1  UNL1        0.0000
     19 C           7.2505    6.4555    1.5685 C.ar    1  UNL1        0.0000
     20 H           6.7580    5.7119    0.9564 H       1  UNL1        0.0000
     21 C           2.4484    4.0941    4.5084 C.ar    1  UNL1        0.0000
     22 C           5.5020    4.2889    3.1338 C.3     1  UNL1        0.0000
     23 H           6.1827    4.1731    2.2904 H       1  UNL1        0.0000
     24 H           4.5570    3.8116    2.8775 H       1  UNL1        0.0000
     25 C           6.3975    5.3714    8.0219 C.ar    1  UNL1        0.0000
     26 C           3.1307    5.6620    1.4807 C.ar    1  UNL1        0.0000
     27 H           3.0173    4.6519    1.8442 H       1  UNL1        0.0000
     28 C           2.4527    4.5215    7.1486 C.ar    1  UNL1        0.0000
     29 C           1.4323    4.9940    4.1945 C.ar    1  UNL1        0.0000
     30 H           1.4450    5.9726    4.6574 H       1  UNL1        0.0000
     31 C           4.2068    7.8030    1.5091 C.ar    1  UNL1        0.0000
     32 H           4.9591    8.4668    1.9136 H       1  UNL1        0.0000
     33 C           1.2281    3.2505    8.7777 C.ar    1  UNL1        0.0000
     34 H           1.0226    2.3074    9.2642 H       1  UNL1        0.0000
     35 C           9.0294    8.0405    1.8666 C.ar    1  UNL1        0.0000
     36 H           9.9365    8.5041    1.5071 H       1  UNL1        0.0000
     37 C           0.5449    4.3915    9.1636 C.ar    1  UNL1        0.0000
     38 H          -0.1922    4.3389    9.9518 H       1  UNL1        0.0000
     39 C           2.2899    6.1040    0.4748 C.ar    1  UNL1        0.0000
     40 H           1.5409    5.4345    0.0759 H       1  UNL1        0.0000
     41 C           1.4567    2.5109    2.9927 C.ar    1  UNL1        0.0000
     42 H           1.4725    1.5390    2.5194 H       1  UNL1        0.0000
     43 C           6.4140    4.3960   10.6287 C.ar    1  UNL1        0.0000
     44 H           6.4229    4.0103   11.6377 H       1  UNL1        0.0000
     45 C           7.4123    4.8143    5.4447 C.3     1  UNL1        0.0000
     46 H           8.1615    4.3830    6.1068 H       1  UNL1        0.0000
     47 H           7.9084    5.3312    4.6196 H       1  UNL1        0.0000
     48 C           2.1743    3.3096    7.7698 C.ar    1  UNL1        0.0000
     49 H           2.6963    2.4101    7.4783 H       1  UNL1        0.0000
     50 C           5.2195    5.2754    8.7478 C.ar    1  UNL1        0.0000
     51 H           4.3012    5.6046    8.2849 H       1  UNL1        0.0000
     52 C           5.2222    4.7825   10.0404 C.ar    1  UNL1        0.0000
     53 H           4.2925    4.7048   10.5854 H       1  UNL1        0.0000
     54 C           6.9651    8.4900    7.3497 C.ar    1  UNL1        0.0000
     55 H           5.9003    8.4597    7.5443 H       1  UNL1        0.0000
     56 C           0.4387    4.6581    3.2967 C.ar    1  UNL1        0.0000
     57 H          -0.3403    5.3686    3.0626 H       1  UNL1        0.0000
     58 C           3.3662    8.2422    0.5054 C.ar    1  UNL1        0.0000
     59 H           3.4596    9.2507    0.1286 H       1  UNL1        0.0000
     60 C           1.7597    5.6637    7.5370 C.ar    1  UNL1        0.0000
     61 H           2.0078    6.6041    7.0617 H       1  UNL1        0.0000
     62 C           2.4503    2.8444    3.8989 C.ar    1  UNL1        0.0000
     63 H           3.2281    2.1233    4.1078 H       1  UNL1        0.0000
     64 C           8.4728    8.4401    3.0690 C.ar    1  UNL1        0.0000
     65 H           8.9364    9.2210    3.6545 H       1  UNL1        0.0000
     66 C           8.9011    7.4225    6.4050 C.ar    1  UNL1        0.0000
     67 H           9.3658    6.5961    5.8861 H       1  UNL1        0.0000
     68 C           7.5969    5.0101    8.6317 C.ar    1  UNL1        0.0000
     69 H           8.5338    5.1274    8.1042 H       1  UNL1        0.0000
     70 C           2.4022    7.3934   -0.0145 C.ar    1  UNL1        0.0000
     71 H           1.7416    7.7367   -0.7973 H       1  UNL1        0.0000
     72 C           0.4491    3.4109    2.6919 C.ar    1  UNL1        0.0000
     73 H          -0.3229    3.1421    1.9859 H       1  UNL1        0.0000
     74 C           0.8108    5.5997    8.5396 C.ar    1  UNL1        0.0000
     75 H           0.2811    6.4923    8.8394 H       1  UNL1        0.0000
     76 C           7.6015    4.5215    9.9244 C.ar    1  UNL1        0.0000
     77 H           8.5365    4.2419   10.3887 H       1  UNL1        0.0000
     78 C           7.7341    9.5777    7.7131 C.ar    1  UNL1        0.0000
     79 H           7.2808   10.4173    8.2197 H       1  UNL1        0.0000
     80 C           9.6681    8.5164    6.7690 C.ar    1  UNL1        0.0000
     81 H          10.7244    8.5286    6.5389 H       1  UNL1        0.0000
     82 C           9.0899    9.5914    7.4219 C.ar    1  UNL1        0.0000
     83 H           9.6950   10.4418    7.7011 H       1  UNL1        0.0000
@<TRIPOS>BOND
     1    71    70    1
     2    70    39   ar
     3    70    58   ar
     4    40    39    1
     5    59    58    1
     6    11    10    1
     7    39    26   ar
     8    58    31   ar
     9    20    19    1
    10    10    19   ar
    11    10    35   ar
    12    26    27    1
    13    26     7   ar
    14    36    35    1
    15    31    32    1
    16    31     7   ar
    17    19     9   ar
    18    35    64   ar
    19    73    72    1
    20     7     3    1
    21    23    22    1
    22    42    41    1
    23    72    41   ar
    24    72    56   ar
    25     9     3    1
    26     9     5   ar
    27    24    22    1
    28    41    62   ar
    29    57    56    1
    30    64     5   ar
    31    64    65    1
    32    22     3    1
    33    22     4    1
    34    56    29   ar
    35     5     6    1
    36    14    12    1
    37    62    63    1
    38    62    21   ar
    39    15    12    1
    40    29    21   ar
    41    29    30    1
    42    12     4    1
    43    12    13    1
    44    21     2    1
    45    47    45    1
    46     4    45    1
    47     4    16    1
    48    45    46    1
    49    45     1    1
    50     2    16    1
    51     2    28    1
    52    67    66    1
    53    17    16    1
    54    16    18    1
    55     1     8    1
    56     1    25    1
    57    66     8   ar
    58    66    80   ar
    59    81    80    1
    60     8    54   ar
    61    80    82   ar
    62    61    60    1
    63    28    60   ar
    64    28    48   ar
    65    54    55    1
    66    54    78   ar
    67    82    83    1
    68    82    78   ar
    69    49    48    1
    70    60    74   ar
    71    78    79    1
    72    48    33   ar
    73    25    68   ar
    74    25    50   ar
    75    69    68    1
    76    51    50    1
    77    74    75    1
    78    74    37   ar
    79    68    76   ar
    80    50    52   ar
    81    33    37   ar
    82    33    34    1
    83    37    38    1
    84    76    77    1
    85    76    43   ar
    86    52    53    1
    87    52    43   ar
    88    43    44    1
