@<TRIPOS>MOLECULE
1,3,4
 28 28 0 0 0
SMALL
GASTEIGER

@<TRIPOS>ATOM
      1 P           3.0251    2.1620    5.8432 P.3     1  UNL1       -0.1207
      2 H           4.3147    1.7237    6.1398 H       1  UNL1        0.0577
      3 P           1.4143    3.3683    3.6623 P.3     1  UNL1       -0.0824
      4 P           0.0859    1.9286    5.9020 P.3     1  UNL1       -0.1207
      5 H          -0.9294    1.1360    6.4306 H       1  UNL1        0.0577
      6 C           3.2897    3.9887    5.6141 C.3     1  UNL1       -0.0308
      7 H           2.6922    4.5085    6.3693 H       1  UNL1        0.0314
      8 H           4.3377    4.2447    5.7878 H       1  UNL1        0.0314
      9 C           2.8492    4.4012    4.2107 C.3     1  UNL1       -0.0252
     10 H           3.6553    4.2057    3.5034 H       1  UNL1        0.0319
     11 H           2.5954    5.4640    4.1549 H       1  UNL1        0.0319
     12 C          -0.0232    4.2759    4.4566 C.3     1  UNL1       -0.0252
     13 H           0.4024    5.0364    5.1174 H       1  UNL1        0.0319
     14 H          -0.5922    4.7955    3.6821 H       1  UNL1        0.0319
     15 C          -0.9195    3.3266    5.2513 C.3     1  UNL1       -0.0308
     16 H          -1.6616    2.8650    4.5935 H       1  UNL1        0.0314
     17 H          -1.4509    3.8453    6.0544 H       1  UNL1        0.0314
     18 C           0.8524    2.5464    7.4815 C.3     1  UNL1       -0.0313
     19 H           0.8108    3.6402    7.4780 H       1  UNL1        0.0314
     20 H           0.2837    2.1936    8.3445 H       1  UNL1        0.0314
     21 C           2.3030    2.0651    7.5388 C.3     1  UNL1       -0.0313
     22 H           2.3370    1.0077    7.8180 H       1  UNL1        0.0314
     23 H           2.8954    2.6316    8.2627 H       1  UNL1        0.0314
     24 C           1.2122    3.7825    1.9213 C.2     1  UNL1       -0.0666
     25 H           0.2615    3.4499    1.5232 H       1  UNL1        0.0617
     26 C           2.0977    4.3682    1.1288 C.2     1  UNL1       -0.0982
     27 H           3.0617    4.7059    1.4691 H       1  UNL1        0.0535
     28 H           1.8808    4.5484    0.0882 H       1  UNL1        0.0535
@<TRIPOS>BOND
     1    28    26    1
     2    26    27    1
     3    26    24    2
     4    25    24    1
     5    24     3    1
     6    10     9    1
     7     3     9    1
     8     3    12    1
     9    14    12    1
    10    11     9    1
    11     9     6    1
    12    12    13    1
    13    12    15    1
    14    16    15    1
    15    15     4    1
    16    15    17    1
    17     6     8    1
    18     6     1    1
    19     6     7    1
    20     1     2    1
    21     1    21    1
    22     4     5    1
    23     4    18    1
    24    19    18    1
    25    18    21    1
    26    18    20    1
    27    21    22    1
    28    21    23    1
