@<TRIPOS>MOLECULE
1,2,3
 83 88 0 0 0
SMALL
GASTEIGER

@<TRIPOS>ATOM
      1 P           1.6104    3.1110    3.2092 P.3     1  UNL1       -0.0433
      2 P           3.8458    2.4084    5.3403 P.3     1  UNL1       -0.0433
      3 P           3.8939    4.9912    3.5957 P.3     1  UNL1       -0.0433
      4 C           1.9722    4.5424    5.6845 C.3     1  UNL1       -0.0187
      5 C           1.1416    5.2687    6.7549 C.3     1  UNL1       -0.0586
      6 H           0.5461    4.5594    7.3261 H       1  UNL1        0.0235
      7 H           0.4660    5.9895    6.2987 H       1  UNL1        0.0235
      8 H           1.7879    5.8042    7.4473 H       1  UNL1        0.0235
      9 C           1.0090    3.6695    4.8598 C.3     1  UNL1       -0.0183
     10 H           0.0596    4.1946    4.7182 H       1  UNL1        0.0324
     11 H           0.8073    2.7516    5.4253 H       1  UNL1        0.0324
     12 C           3.0008    3.6657    6.4092 C.3     1  UNL1       -0.0183
     13 H           2.4977    3.1430    7.2266 H       1  UNL1        0.0324
     14 H           3.7784    4.2995    6.8441 H       1  UNL1        0.0324
     15 C           2.6716    5.6106    4.8345 C.3     1  UNL1       -0.0183
     16 H           3.1749    6.3237    5.4941 H       1  UNL1        0.0324
     17 H           1.9232    6.1662    4.2627 H       1  UNL1        0.0324
     18 C           0.6144    1.6075    2.9187 C.ar    1  UNL1       -0.0189
     19 C          -0.6608    1.4431    3.4488 C.ar    1  UNL1       -0.0538
     20 H          -1.0987    2.2039    4.0772 H       1  UNL1        0.0624
     21 C          -1.3846    0.2997    3.1609 C.ar    1  UNL1       -0.0612
     22 H          -2.3726    0.1755    3.5780 H       1  UNL1        0.0618
     23 C          -0.8539   -0.6792    2.3368 C.ar    1  UNL1       -0.0617
     24 H          -1.4258   -1.5680    2.1179 H       1  UNL1        0.0618
     25 C           0.4069   -0.5111    1.7890 C.ar    1  UNL1       -0.0612
     26 H           0.8229   -1.2644    1.1361 H       1  UNL1        0.0618
     27 C           1.1347    0.6269    2.0810 C.ar    1  UNL1       -0.0538
     28 H           2.1240    0.7621    1.6630 H       1  UNL1        0.0624
     29 C           0.8182    4.2096    1.9889 C.ar    1  UNL1       -0.0189
     30 C           0.2050    5.4251    2.2655 C.ar    1  UNL1       -0.0538
     31 H           0.1014    5.7829    3.2792 H       1  UNL1        0.0624
     32 C          -0.3011    6.1979    1.2347 C.ar    1  UNL1       -0.0612
     33 H          -0.7740    7.1420    1.4605 H       1  UNL1        0.0618
     34 C          -0.2050    5.7676   -0.0767 C.ar    1  UNL1       -0.0617
     35 H          -0.5988    6.3777   -0.8749 H       1  UNL1        0.0618
     36 C           0.3911    4.5489   -0.3594 C.ar    1  UNL1       -0.0612
     37 H           0.4613    4.2029   -1.3795 H       1  UNL1        0.0618
     38 C           0.9008    3.7779    0.6654 C.ar    1  UNL1       -0.0538
     39 H           1.3747    2.8310    0.4478 H       1  UNL1        0.0624
     40 C           3.0290    0.8547    5.8685 C.ar    1  UNL1       -0.0189
     41 C           2.6340    0.5598    7.1706 C.ar    1  UNL1       -0.0538
     42 H           2.8125    1.2494    7.9824 H       1  UNL1        0.0624
     43 C           1.9999   -0.6366    7.4531 C.ar    1  UNL1       -0.0612
     44 H           1.7020   -0.8537    8.4679 H       1  UNL1        0.0618
     45 C           1.7451   -1.5532    6.4459 C.ar    1  UNL1       -0.0617
     46 H           1.2442   -2.4814    6.6743 H       1  UNL1        0.0618
     47 C           2.1352   -1.2711    5.1481 C.ar    1  UNL1       -0.0612
     48 H           1.9371   -1.9752    4.3540 H       1  UNL1        0.0618
     49 C           2.7734   -0.0782    4.8671 C.ar    1  UNL1       -0.0538
     50 H           3.0710    0.1463    3.8517 H       1  UNL1        0.0624
     51 C           5.4817    2.4001    6.1554 C.ar    1  UNL1       -0.0189
     52 C           6.5938    2.6331    5.3537 C.ar    1  UNL1       -0.0538
     53 H           6.4557    2.7806    4.2888 H       1  UNL1        0.0624
     54 C           7.8605    2.6878    5.9044 C.ar    1  UNL1       -0.0612
     55 H           8.7147    2.8779    5.2717 H       1  UNL1        0.0618
     56 C           8.0278    2.5011    7.2661 C.ar    1  UNL1       -0.0617
     57 H           9.0149    2.5390    7.7010 H       1  UNL1        0.0618
     58 C           6.9250    2.2677    8.0720 C.ar    1  UNL1       -0.0612
     59 H           7.0543    2.1207    9.1337 H       1  UNL1        0.0618
     60 C           5.6559    2.2224    7.5243 C.ar    1  UNL1       -0.0538
     61 H           4.8072    2.0482    8.1678 H       1  UNL1        0.0624
     62 C           5.5390    5.4924    4.2007 C.ar    1  UNL1       -0.0189
     63 C           6.5430    5.4146    3.2347 C.ar    1  UNL1       -0.0538
     64 H           6.2769    5.1142    2.2277 H       1  UNL1        0.0624
     65 C           7.8507    5.7155    3.5567 C.ar    1  UNL1       -0.0612
     66 H           8.6200    5.6608    2.8010 H       1  UNL1        0.0618
     67 C           8.1740    6.0854    4.8538 C.ar    1  UNL1       -0.0617
     68 H           9.1959    6.3179    5.1115 H       1  UNL1        0.0618
     69 C           7.1845    6.1565    5.8184 C.ar    1  UNL1       -0.0612
     70 H           7.4343    6.4437    6.8289 H       1  UNL1        0.0618
     71 C           5.8707    5.8594    5.4976 C.ar    1  UNL1       -0.0538
     72 H           5.1185    5.9251    6.2704 H       1  UNL1        0.0624
     73 C           3.6628    6.2451    2.2951 C.ar    1  UNL1       -0.0189
     74 C           3.7118    7.5960    2.6331 C.ar    1  UNL1       -0.0538
     75 H           3.9149    7.8918    3.6533 H       1  UNL1        0.0624
     76 C           3.5133    8.5553    1.6596 C.ar    1  UNL1       -0.0612
     77 H           3.5511    9.6019    1.9222 H       1  UNL1        0.0618
     78 C           3.2698    8.1772    0.3475 C.ar    1  UNL1       -0.0617
     79 H           3.1122    8.9315   -0.4082 H       1  UNL1        0.0618
     80 C           3.2403    6.8363    0.0071 C.ar    1  UNL1       -0.0612
     81 H           3.0633    6.5374   -1.0147 H       1  UNL1        0.0618
     82 C           3.4409    5.8713    0.9783 C.ar    1  UNL1       -0.0538
     83 H           3.4231    4.8239    0.7163 H       1  UNL1        0.0624
@<TRIPOS>BOND
     1    37    36    1
     2    81    80    1
     3    35    34    1
     4    79    78    1
     5    36    34   ar
     6    36    38   ar
     7    34    32   ar
     8    80    78   ar
     9    80    82   ar
    10    78    76   ar
    11    39    38    1
    12    38    29   ar
    13    83    82    1
    14    82    73   ar
    15    26    25    1
    16    32    33    1
    17    32    30   ar
    18    76    77    1
    19    76    74   ar
    20    28    27    1
    21    25    27   ar
    22    25    23   ar
    23    29    30   ar
    24    29     1    1
    25    27    18   ar
    26    24    23    1
    27    64    63    1
    28    30    31    1
    29    73    74   ar
    30    73     3    1
    31    23    21   ar
    32    74    75    1
    33    66    65    1
    34    18     1    1
    35    18    19   ar
    36    21    19   ar
    37    21    22    1
    38     1     9    1
    39    63    65   ar
    40    63    62   ar
    41    19    20    1
    42    65    67   ar
    43     3    62    1
    44     3    15    1
    45    50    49    1
    46    62    71   ar
    47    17    15    1
    48    53    52    1
    49    48    47    1
    50    10     9    1
    51    15    16    1
    52    15     4    1
    53    67    68    1
    54    67    69   ar
    55     9    11    1
    56     9     4    1
    57    49    47   ar
    58    49    40   ar
    59    47    45   ar
    60    55    54    1
    61     2    40    1
    62     2    51    1
    63     2    12    1
    64    52    54   ar
    65    52    51   ar
    66    71    69   ar
    67    71    72    1
    68     4    12    1
    69     4     5    1
    70    69    70    1
    71    40    41   ar
    72    54    56   ar
    73    51    60   ar
    74     7     5    1
    75    12    14    1
    76    12    13    1
    77    45    46    1
    78    45    43   ar
    79     5     6    1
    80     5     8    1
    81    41    43   ar
    82    41    42    1
    83    56    57    1
    84    56    58   ar
    85    43    44    1
    86    60    58   ar
    87    60    61    1
    88    58    59    1
