@<TRIPOS>MOLECULE
1,2,3
 45 45 0 0 0
SMALL
GASTEIGER

@<TRIPOS>ATOM
      1 P           3.4456    3.0502    2.3151 P.3     1  UNL1       -0.1058
      2 P           4.5210    4.7668    0.1257 P.3     1  UNL1       -0.1055
      3 P           2.2925    5.8300    1.7904 P.3     1  UNL1       -0.1058
      4 C           5.2183    3.5625    2.5376 C.3     1  UNL1       -0.0284
      5 H           5.2525    4.3925    3.2461 H       1  UNL1        0.0316
      6 H           5.7806    2.7356    2.9797 H       1  UNL1        0.0316
      7 C           5.8145    3.9841    1.1962 C.3     1  UNL1       -0.0284
      8 H           6.1606    3.1054    0.6445 H       1  UNL1        0.0316
      9 H           6.6647    4.6584    1.3318 H       1  UNL1        0.0316
     10 C           4.6263    6.5577    0.5606 C.3     1  UNL1       -0.0284
     11 H           5.6636    6.8970    0.6181 H       1  UNL1        0.0316
     12 H           4.1217    7.1018   -0.2444 H       1  UNL1        0.0316
     13 C           3.8894    6.7648    1.8780 C.3     1  UNL1       -0.0284
     14 H           3.7097    7.8216    2.0825 H       1  UNL1        0.0316
     15 H           4.4802    6.3626    2.7034 H       1  UNL1        0.0316
     16 C           1.7770    5.6945    3.5480 C.3     1  UNL1       -0.0319
     17 H           1.7487    6.6994    3.9803 H       1  UNL1        0.0313
     18 H           0.7569    5.3023    3.5253 H       1  UNL1        0.0313
     19 C           2.6532    4.7984    4.4192 C.3     1  UNL1       -0.0452
     20 H           2.2554    4.8257    5.4378 H       1  UNL1        0.0272
     21 H           3.6651    5.2051    4.4707 H       1  UNL1        0.0272
     22 C           2.6990    3.3396    3.9697 C.3     1  UNL1       -0.0319
     23 H           1.6814    2.9428    3.9038 H       1  UNL1        0.0313
     24 H           3.2527    2.7494    4.7073 H       1  UNL1        0.0313
     25 C           3.5989    1.2198    2.3110 C.3     1  UNL1       -0.0351
     26 H           4.0039    0.8947    3.2741 H       1  UNL1        0.0310
     27 H           2.5898    0.8167    2.2153 H       1  UNL1        0.0310
     28 C           4.4835    0.7430    1.1635 C.3     1  UNL1       -0.0613
     29 H           4.2605    1.3003    0.2540 H       1  UNL1        0.0233
     30 H           4.3228   -0.3148    0.9702 H       1  UNL1        0.0233
     31 H           5.5357    0.8787    1.3995 H       1  UNL1        0.0233
     32 C           5.2534    4.6779   -1.5533 C.3     1  UNL1       -0.0351
     33 H           5.3505    3.6129   -1.7867 H       1  UNL1        0.0310
     34 H           4.5114    5.0990   -2.2379 H       1  UNL1        0.0310
     35 C           6.5968    5.3778   -1.7290 C.3     1  UNL1       -0.0613
     36 H           6.5050    6.4506   -1.5838 H       1  UNL1        0.0233
     37 H           6.9627    5.2079   -2.7392 H       1  UNL1        0.0233
     38 H           7.3381    4.9908   -1.0346 H       1  UNL1        0.0233
     39 C           1.1046    7.0904    1.1513 C.3     1  UNL1       -0.0351
     40 H           1.2150    7.0975    0.0633 H       1  UNL1        0.0310
     41 H           0.1135    6.6884    1.3808 H       1  UNL1        0.0310
     42 C           1.2128    8.5127    1.6918 C.3     1  UNL1       -0.0613
     43 H           1.2512    8.5325    2.7780 H       1  UNL1        0.0233
     44 H           0.3368    9.0779    1.3808 H       1  UNL1        0.0233
     45 H           2.0869    9.0253    1.2992 H       1  UNL1        0.0233
@<TRIPOS>BOND
     1    37    35    1
     2    34    32    1
     3    33    32    1
     4    35    36    1
     5    35    32    1
     6    35    38    1
     7    32     2    1
     8    12    10    1
     9    40    39    1
    10     2    10    1
    11     2     7    1
    12    29    28    1
    13    10    11    1
    14    10    13    1
    15     8     7    1
    16    30    28    1
    17    39    41    1
    18    39    42    1
    19    39     3    1
    20    28    31    1
    21    28    25    1
    22     7     9    1
    23     7     4    1
    24    45    42    1
    25    44    42    1
    26    42    43    1
    27     3    13    1
    28     3    16    1
    29    13    14    1
    30    13    15    1
    31    27    25    1
    32    25     1    1
    33    25    26    1
    34     1     4    1
    35     1    22    1
    36     4     6    1
    37     4     5    1
    38    18    16    1
    39    16    17    1
    40    16    19    1
    41    23    22    1
    42    22    19    1
    43    22    24    1
    44    19    21    1
    45    19    20    1
