@<TRIPOS>MOLECULE
1,2,3
 90 96 0 0 0
SMALL
GASTEIGER

@<TRIPOS>ATOM
      1 P           1.9034    4.1289   17.4468 P.3     1  UNL1        0.0000
      2 P           0.2076    6.6213   17.4444 P.3     1  UNL1        0.0000
      3 P           0.5656    4.8942   20.2851 P.3     1  UNL1        0.0000
      4 C           3.0958    5.4836   17.6890 C.3     1  UNL1        0.0000
      5 H           4.0822    5.0200   17.7884 H       1  UNL1        0.0000
      6 H           3.1027    6.0788   16.7730 H       1  UNL1        0.0000
      7 C          -0.3029    6.1403   21.3183 C.ar    1  UNL1        0.0000
      8 C           0.0325    6.1864   14.7170 C.ar    1  UNL1        0.0000
      9 H          -0.8111    5.5744   15.0088 H       1  UNL1        0.0000
     10 C           5.2047    6.6942   19.6977 C.ar    1  UNL1        0.0000
     11 H           5.3053    5.6334   19.5069 H       1  UNL1        0.0000
     12 C           2.2912    5.4565   20.2565 C.3     1  UNL1        0.0000
     13 H           2.5264    5.9122   21.2243 H       1  UNL1        0.0000
     14 H           2.8901    4.5379   20.1900 H       1  UNL1        0.0000
     15 C          -1.6250    5.8402   21.6409 C.ar    1  UNL1        0.0000
     16 H          -2.0444    4.9097   21.2782 H       1  UNL1        0.0000
     17 C          -1.1034    7.9097   17.4352 C.ar    1  UNL1        0.0000
     18 C           2.0044    3.6472   15.6822 C.ar    1  UNL1        0.0000
     19 C           1.8412    7.6295   15.3238 C.ar    1  UNL1        0.0000
     20 H           2.4256    8.1581   16.0628 H       1  UNL1        0.0000
     21 C           0.2504    7.3244   21.7889 C.ar    1  UNL1        0.0000
     22 H           1.2761    7.5800   21.5669 H       1  UNL1        0.0000
     23 C          -1.7779    8.1434   18.6317 C.ar    1  UNL1        0.0000
     24 H          -1.5683    7.5199   19.4908 H       1  UNL1        0.0000
     25 C           0.5211    3.6120   21.6057 C.ar    1  UNL1        0.0000
     26 B           2.6997    6.4446   18.9752 B       1  UNL1        0.0000
     27 C           1.4403    7.4251   18.5065 C.3     1  UNL1        0.0000
     28 H           1.7693    8.3351   17.9916 H       1  UNL1        0.0000
     29 H           0.8555    7.7572   19.3727 H       1  UNL1        0.0000
     30 C           2.8580    2.7045   18.1019 C.ar    1  UNL1        0.0000
     31 C           2.4707    2.0095   19.2373 C.ar    1  UNL1        0.0000
     32 H           1.5512    2.2788   19.7386 H       1  UNL1        0.0000
     33 C           0.3664    6.3152   13.3825 C.ar    1  UNL1        0.0000
     34 H          -0.2130    5.8001   12.6289 H       1  UNL1        0.0000
     35 C          -2.3332    9.7328   16.4492 C.ar    1  UNL1        0.0000
     36 H          -2.5404   10.3581   15.5911 H       1  UNL1        0.0000
     37 C          -2.7009    9.1632   18.7439 C.ar    1  UNL1        0.0000
     38 H          -3.1971    9.3362   19.6884 H       1  UNL1        0.0000
     39 C          -2.9759    9.9711   17.6518 C.ar    1  UNL1        0.0000
     40 H          -3.6767   10.7898   17.7450 H       1  UNL1        0.0000
     41 C           3.9747    7.3141   19.4707 C.ar    1  UNL1        0.0000
     42 C          -1.4041    8.7125   16.3396 C.ar    1  UNL1        0.0000
     43 H          -0.9024    8.5555   15.3954 H       1  UNL1        0.0000
     44 C           6.3049    7.3845   20.1712 C.ar    1  UNL1        0.0000
     45 H           7.2417    6.8659   20.3299 H       1  UNL1        0.0000
     46 C          -2.3852    6.7089   22.3982 C.ar    1  UNL1        0.0000
     47 H          -3.4100    6.4631   22.6411 H       1  UNL1        0.0000
     48 C           1.2857    3.7470   22.7591 C.ar    1  UNL1        0.0000
     49 H           1.9398    4.5986   22.8778 H       1  UNL1        0.0000
     50 C           3.9081    8.6729   19.7757 C.ar    1  UNL1        0.0000
     51 H           2.9751    9.2057   19.6469 H       1  UNL1        0.0000
     52 C          -1.8311    7.8980   22.8477 C.ar    1  UNL1        0.0000
     53 H          -2.4230    8.5845   23.4361 H       1  UNL1        0.0000
     54 C          -0.4004    1.5675   22.4844 C.ar    1  UNL1        0.0000
     55 H          -1.0603    0.7183   22.3747 H       1  UNL1        0.0000
     56 C           2.1787    7.7557   13.9870 C.ar    1  UNL1        0.0000
     57 H           3.0195    8.3744   13.7059 H       1  UNL1        0.0000
     58 C           0.7720    6.8267   15.7082 C.ar    1  UNL1        0.0000
     59 C          -0.3274    2.5180   21.4822 C.ar    1  UNL1        0.0000
     60 H          -0.9202    2.4152   20.5811 H       1  UNL1        0.0000
     61 C          -0.5150    8.1980   22.5445 C.ar    1  UNL1        0.0000
     62 H          -0.0764    9.1203   22.8988 H       1  UNL1        0.0000
     63 C           5.0003    9.3779   20.2518 C.ar    1  UNL1        0.0000
     64 H           4.9060   10.4334   20.4740 H       1  UNL1        0.0000
     65 C           0.3735    1.7025   23.6246 C.ar    1  UNL1        0.0000
     66 H           0.3214    0.9596   24.4076 H       1  UNL1        0.0000
     67 C           1.2147    2.7950   23.7591 C.ar    1  UNL1        0.0000
     68 H           1.8171    2.9059   24.6496 H       1  UNL1        0.0000
     69 C           3.2475    0.9772   19.7334 C.ar    1  UNL1        0.0000
     70 H           2.9334    0.4536   20.6253 H       1  UNL1        0.0000
     71 C           6.2104    8.7377   20.4472 C.ar    1  UNL1        0.0000
     72 H           7.0675    9.2842   20.8165 H       1  UNL1        0.0000
     73 C           1.4486    7.0966   13.0131 C.ar    1  UNL1        0.0000
     74 H           1.7194    7.1939   11.9718 H       1  UNL1        0.0000
     75 C           1.2226    2.5546   15.3129 C.ar    1  UNL1        0.0000
     76 H           0.6151    2.0729   16.0706 H       1  UNL1        0.0000
     77 C           2.7929    4.2665   14.7229 C.ar    1  UNL1        0.0000
     78 H           3.4240    5.1039   14.9834 H       1  UNL1        0.0000
     79 C           4.8107    1.3040   17.9481 C.ar    1  UNL1        0.0000
     80 H           5.7237    1.0278   17.4396 H       1  UNL1        0.0000
     81 C           4.0388    2.3398   17.4587 C.ar    1  UNL1        0.0000
     82 H           4.3506    2.8689   16.5678 H       1  UNL1        0.0000
     83 C           1.9864    2.7435   13.0504 C.ar    1  UNL1        0.0000
     84 H           1.9758    2.3989   12.0261 H       1  UNL1        0.0000
     85 C           2.7774    3.8185   13.4124 C.ar    1  UNL1        0.0000
     86 H           3.3896    4.3144   12.6722 H       1  UNL1        0.0000
     87 C           4.4195    0.6215   19.0896 C.ar    1  UNL1        0.0000
     88 H           5.0278   -0.1848   19.4731 H       1  UNL1        0.0000
     89 C           1.2122    2.1054   14.0080 C.ar    1  UNL1        0.0000
     90 H           0.6018    1.2570   13.7315 H       1  UNL1        0.0000
@<TRIPOS>BOND
     1    74    73    1
     2    84    83    1
     3    34    33    1
     4    86    85    1
     5    73    33   ar
     6    73    56   ar
     7    83    85   ar
     8    83    89   ar
     9    33     8   ar
    10    85    77   ar
    11    57    56    1
    12    90    89    1
    13    56    19   ar
    14    89    75   ar
    15     8     9    1
    16     8    58   ar
    17    77    78    1
    18    77    18   ar
    19    75    18   ar
    20    75    76    1
    21    19    58   ar
    22    19    20    1
    23    43    42    1
    24    36    35    1
    25    18     1    1
    26    58     2    1
    27    42    35   ar
    28    42    17   ar
    29    35    39   ar
    30    82    81    1
    31     6     4    1
    32    17     2    1
    33    17    23   ar
    34    80    79    1
    35     2    27    1
    36     1     4    1
    37     1    30    1
    38    81    79   ar
    39    81    30   ar
    40    39    40    1
    41    39    37   ar
    42     4     5    1
    43     4    26    1
    44    79    87   ar
    45    28    27    1
    46    30    31   ar
    47    27    26    1
    48    27    29    1
    49    23    37   ar
    50    23    24    1
    51    37    38    1
    52    26    41    1
    53    26    12    1
    54    87    88    1
    55    87    69   ar
    56    31    69   ar
    57    31    32    1
    58    41    10   ar
    59    41    50   ar
    60    11    10    1
    61    51    50    1
    62    10    44   ar
    63    69    70    1
    64    50    63   ar
    65    44    45    1
    66    44    71   ar
    67    14    12    1
    68    63    71   ar
    69    63    64    1
    70    12     3    1
    71    12    13    1
    72     3     7    1
    73     3    25    1
    74    71    72    1
    75    60    59    1
    76    16    15    1
    77     7    15   ar
    78     7    21   ar
    79    59    25   ar
    80    59    54   ar
    81    22    21    1
    82    25    48   ar
    83    15    46   ar
    84    21    61   ar
    85    55    54    1
    86    46    47    1
    87    46    52   ar
    88    54    65   ar
    89    61    52   ar
    90    61    62    1
    91    48    49    1
    92    48    67   ar
    93    52    53    1
    94    65    67   ar
    95    65    66    1
    96    67    68    1
