@<TRIPOS>MOLECULE
1,2,3
 77 76 0 0 0
SMALL
GASTEIGER

@<TRIPOS>ATOM
      1 P           2.6164    3.7773    5.4812 P.3     1  UNL1        0.0000
      2 P           0.1645    5.8922    4.3801 P.3     1  UNL1        0.0000
      3 P           0.1436    2.6115    3.4448 P.3     1  UNL1        0.0000
      4 SI          1.2491    2.9576    7.1087 Si      1  UNL1        0.0000
      5 SI         -0.7534    5.3789    6.4006 Si      1  UNL1        0.0000
      6 SI         -1.2947    2.4387    5.2034 Si      1  UNL1        0.0000
      7 C          -0.5913    3.4606    6.7077 C.3     1  UNL1        0.0000
      8 C          -1.4411    3.1180    7.9378 C.3     1  UNL1        0.0000
      9 H          -1.2978    2.0842    8.2395 H       1  UNL1        0.0000
     10 H          -2.4992    3.2594    7.7365 H       1  UNL1        0.0000
     11 H          -1.1790    3.7475    8.7836 H       1  UNL1        0.0000
     12 C           3.8665    2.4289    5.3169 C.3     1  UNL1        0.0000
     13 H           3.3225    1.5638    4.9243 H       1  UNL1        0.0000
     14 H           4.5498    2.7537    4.5247 H       1  UNL1        0.0000
     15 C           4.6631    2.0330    6.5541 C.3     1  UNL1        0.0000
     16 H           5.2424    1.1352    6.3426 H       1  UNL1        0.0000
     17 H           4.0102    1.8265    7.3972 H       1  UNL1        0.0000
     18 H           5.3605    2.8152    6.8426 H       1  UNL1        0.0000
     19 C           3.5803    5.0004    6.4803 C.3     1  UNL1        0.0000
     20 H           2.8967    5.8236    6.7081 H       1  UNL1        0.0000
     21 H           3.8808    4.5389    7.4244 H       1  UNL1        0.0000
     22 C           4.7974    5.5423    5.7446 C.3     1  UNL1        0.0000
     23 H           5.2657    6.3394    6.3213 H       1  UNL1        0.0000
     24 H           4.5085    5.9438    4.7762 H       1  UNL1        0.0000
     25 H           5.5379    4.7631    5.5785 H       1  UNL1        0.0000
     26 C           1.3558    1.0462    7.2945 C.3     1  UNL1        0.0000
     27 H           0.4362    0.6580    7.7167 H       1  UNL1        0.0000
     28 H           2.1550    0.7647    7.9722 H       1  UNL1        0.0000
     29 H           1.5329    0.5345    6.3557 H       1  UNL1        0.0000
     30 C           1.7706    3.5323    8.8661 C.3     1  UNL1        0.0000
     31 H           1.0317    3.2091    9.5911 H       1  UNL1        0.0000
     32 H           1.8856    4.6036    8.9636 H       1  UNL1        0.0000
     33 H           2.7144    3.0757    9.1494 H       1  UNL1        0.0000
     34 C          -1.3669    6.4162    3.4836 C.3     1  UNL1        0.0000
     35 H          -1.9622    5.5124    3.3247 H       1  UNL1        0.0000
     36 H          -1.9420    7.0910    4.1227 H       1  UNL1        0.0000
     37 C          -1.0792    7.0750    2.1423 C.3     1  UNL1        0.0000
     38 H          -2.0105    7.3046    1.6253 H       1  UNL1        0.0000
     39 H          -0.4916    6.4130    1.5113 H       1  UNL1        0.0000
     40 H          -0.5229    8.0010    2.2689 H       1  UNL1        0.0000
     41 C           0.9291    7.5390    4.7154 C.3     1  UNL1        0.0000
     42 H           1.7217    7.3547    5.4477 H       1  UNL1        0.0000
     43 H           1.4264    7.8307    3.7841 H       1  UNL1        0.0000
     44 C           0.0243    8.6693    5.1907 C.3     1  UNL1        0.0000
     45 H           0.6334    9.5159    5.5049 H       1  UNL1        0.0000
     46 H          -0.5896    8.3603    6.0321 H       1  UNL1        0.0000
     47 H          -0.6311    9.0120    4.3941 H       1  UNL1        0.0000
     48 C          -2.5774    5.9619    6.5556 C.3     1  UNL1        0.0000
     49 H          -2.9964    5.6074    7.4908 H       1  UNL1        0.0000
     50 H          -3.2181    5.6202    5.7536 H       1  UNL1        0.0000
     51 H          -2.6294    7.0465    6.5754 H       1  UNL1        0.0000
     52 C           0.0705    6.3291    7.8548 C.3     1  UNL1        0.0000
     53 H          -0.0967    5.8039    8.7883 H       1  UNL1        0.0000
     54 H          -0.3603    7.3184    7.9695 H       1  UNL1        0.0000
     55 H           1.1397    6.4548    7.7300 H       1  UNL1        0.0000
     56 C           0.7057    0.8514    3.3520 C.3     1  UNL1        0.0000
     57 H           1.3161    0.6692    4.2413 H       1  UNL1        0.0000
     58 H          -0.1668    0.1951    3.4016 H       1  UNL1        0.0000
     59 C           1.5232    0.5506    2.1043 C.3     1  UNL1        0.0000
     60 H           1.8775   -0.4797    2.1220 H       1  UNL1        0.0000
     61 H           2.3864    1.2087    2.0468 H       1  UNL1        0.0000
     62 H           0.9316    0.6918    1.2024 H       1  UNL1        0.0000
     63 C          -1.0133    2.6652    2.0068 C.3     1  UNL1        0.0000
     64 H          -1.5821    3.5938    2.1184 H       1  UNL1        0.0000
     65 H          -0.3814    2.7911    1.1210 H       1  UNL1        0.0000
     66 C          -1.9596    1.4887    1.8007 C.3     1  UNL1        0.0000
     67 H          -2.6890    1.7379    1.0311 H       1  UNL1        0.0000
     68 H          -2.4967    1.2463    2.7135 H       1  UNL1        0.0000
     69 H          -1.4222    0.6030    1.4717 H       1  UNL1        0.0000
     70 C          -1.6410    0.6130    5.6921 C.3     1  UNL1        0.0000
     71 H          -2.2242    0.5824    6.6059 H       1  UNL1        0.0000
     72 H          -0.7484    0.0216    5.8468 H       1  UNL1        0.0000
     73 H          -2.2295    0.1202    4.9238 H       1  UNL1        0.0000
     74 C          -3.0677    3.0555    4.7869 C.3     1  UNL1        0.0000
     75 H          -3.5941    3.3234    5.6959 H       1  UNL1        0.0000
     76 H          -3.6493    2.2764    4.3051 H       1  UNL1        0.0000
     77 H          -3.0772    3.9177    4.1305 H       1  UNL1        0.0000
@<TRIPOS>BOND
     1    67    66    1
     2    65    63    1
     3    62    59    1
     4    69    66    1
     5    39    37    1
     6    38    37    1
     7    66    63    1
     8    66    68    1
     9    63    64    1
    10    63     3    1
    11    61    59    1
    12    59    60    1
    13    59    56    1
    14    37    40    1
    15    37    34    1
    16    35    34    1
    17    56    58    1
    18    56     3    1
    19    56    57    1
    20     3     6    1
    21    34    36    1
    22    34     2    1
    23    43    41    1
    24    77    74    1
    25    76    74    1
    26     2    41    1
    27     2     5    1
    28    47    44    1
    29    14    12    1
    30    41    44    1
    31    41    42    1
    32    24    22    1
    33    74     6    1
    34    74    75    1
    35    73    70    1
    36    13    12    1
    37    44    45    1
    38    44    46    1
    39     6    70    1
    40     6     7    1
    41    12     1    1
    42    12    15    1
    43     1    19    1
    44     1     4    1
    45    25    22    1
    46    70    72    1
    47    70    71    1
    48    22    23    1
    49    22    19    1
    50    50    48    1
    51    16    15    1
    52    29    26    1
    53     5    48    1
    54     5     7    1
    55     5    52    1
    56    19    20    1
    57    19    21    1
    58    15    18    1
    59    15    17    1
    60    48    51    1
    61    48    49    1
    62     7     4    1
    63     7     8    1
    64     4    26    1
    65     4    30    1
    66    26    27    1
    67    26    28    1
    68    55    52    1
    69    10     8    1
    70    52    54    1
    71    52    53    1
    72     8     9    1
    73     8    11    1
    74    30    32    1
    75    30    33    1
    76    30    31    1
