@<TRIPOS>MOLECULE
1,2,4
 79 84 0 0 0
SMALL
GASTEIGER

@<TRIPOS>ATOM
      1 P          -0.6585    1.2318   10.2861 P.3     1  UNL1       -0.0392
      2 P          -2.9252    2.2705    8.9144 P.3     1  UNL1       -0.0651
      3 P          -4.0360    4.1622    7.1543 P.3     1  UNL1       -0.0651
      4 P          -1.8148    5.5230    8.9177 P.3     1  UNL1       -0.0392
      5 C          -2.0400    0.6522    9.1620 C.3     1  UNL1        0.0005
      6 C          -3.2173    2.4788    7.1154 C.3     1  UNL1       -0.0031
      7 C          -2.5104    5.2413    7.2351 C.3     1  UNL1        0.0005
      8 C          -1.0269    0.3504   11.8302 C.ar    1  UNL1       -0.0186
      9 C          -1.2441   -1.0265   11.7925 C.ar    1  UNL1       -0.0538
     10 C          -1.5194   -1.7111   12.9598 C.ar    1  UNL1       -0.0612
     11 C          -1.5757   -1.0314   14.1681 C.ar    1  UNL1       -0.0617
     12 C          -1.3515    0.3338   14.2084 C.ar    1  UNL1       -0.0612
     13 C          -1.0774    1.0260   13.0413 C.ar    1  UNL1       -0.0538
     14 C           0.8012    0.3517    9.6531 C.ar    1  UNL1       -0.0186
     15 C           1.6421   -0.3626   10.5009 C.ar    1  UNL1       -0.0538
     16 C           2.7705   -0.9800    9.9909 C.ar    1  UNL1       -0.0612
     17 C           3.0721   -0.8829    8.6424 C.ar    1  UNL1       -0.0617
     18 C           2.2458   -0.1583    7.7978 C.ar    1  UNL1       -0.0612
     19 C           1.1195    0.4642    8.3016 C.ar    1  UNL1       -0.0538
     20 C          -4.6114    1.9926    9.5127 C.ar    1  UNL1       -0.0227
     21 C          -5.2497    3.0306   10.1828 C.ar    1  UNL1       -0.0541
     22 C          -6.5513    2.8726   10.6211 C.ar    1  UNL1       -0.0612
     23 C          -7.2158    1.6788   10.3927 C.ar    1  UNL1       -0.0617
     24 C          -6.5832    0.6450    9.7196 C.ar    1  UNL1       -0.0612
     25 C          -5.2824    0.7974    9.2770 C.ar    1  UNL1       -0.0541
     26 C          -4.4218    4.3721    5.3780 C.ar    1  UNL1       -0.0227
     27 C          -3.4938    4.1766    4.3596 C.ar    1  UNL1       -0.0541
     28 C          -3.8701    4.3511    3.0413 C.ar    1  UNL1       -0.0612
     29 C          -5.1692    4.7196    2.7277 C.ar    1  UNL1       -0.0617
     30 C          -6.0974    4.9133    3.7363 C.ar    1  UNL1       -0.0612
     31 C          -5.7244    4.7398    5.0572 C.ar    1  UNL1       -0.0541
     32 C          -0.5777    6.7916    8.5050 C.ar    1  UNL1       -0.0186
     33 C           0.5488    6.3822    7.7960 C.ar    1  UNL1       -0.0538
     34 C           1.5046    7.3045    7.4176 C.ar    1  UNL1       -0.0612
     35 C           1.3479    8.6400    7.7539 C.ar    1  UNL1       -0.0617
     36 C           0.2301    9.0502    8.4608 C.ar    1  UNL1       -0.0612
     37 C          -0.7364    8.1326    8.8351 C.ar    1  UNL1       -0.0538
     38 C          -3.0962    6.4289    9.8259 C.ar    1  UNL1       -0.0186
     39 C          -2.7562    6.8281   11.1199 C.ar    1  UNL1       -0.0538
     40 C          -3.6707    7.5027   11.9042 C.ar    1  UNL1       -0.0612
     41 C          -4.9372    7.7759   11.4078 C.ar    1  UNL1       -0.0617
     42 C          -5.2779    7.3838   10.1245 C.ar    1  UNL1       -0.0612
     43 C          -4.3619    6.7143    9.3297 C.ar    1  UNL1       -0.0538
     44 H          -2.6597   -0.1114    9.6385 H       1  UNL1        0.0370
     45 H          -1.6439    0.2708    8.2157 H       1  UNL1        0.0370
     46 H          -3.9278    1.7372    6.7353 H       1  UNL1        0.0367
     47 H          -2.2829    2.4532    6.5485 H       1  UNL1        0.0367
     48 H          -1.6999    4.8392    6.6175 H       1  UNL1        0.0370
     49 H          -2.7938    6.2253    6.8374 H       1  UNL1        0.0370
     50 H          -1.1794   -1.5587   10.8519 H       1  UNL1        0.0624
     51 H          -1.6856   -2.7774   12.9304 H       1  UNL1        0.0618
     52 H          -1.7891   -1.5714   15.0777 H       1  UNL1        0.0618
     53 H          -1.3853    0.8639   15.1477 H       1  UNL1        0.0618
     54 H          -0.8839    2.0881   13.0723 H       1  UNL1        0.0624
     55 H           1.4134   -0.4331   11.5543 H       1  UNL1        0.0624
     56 H           3.4186   -1.5363   10.6507 H       1  UNL1        0.0618
     57 H           3.9542   -1.3651    8.2503 H       1  UNL1        0.0618
     58 H           2.4842   -0.0721    6.7483 H       1  UNL1        0.0618
     59 H           0.4918    1.0556    7.6478 H       1  UNL1        0.0624
     60 H          -4.7247    3.9628   10.3513 H       1  UNL1        0.0624
     61 H          -7.0455    3.6796   11.1404 H       1  UNL1        0.0618
     62 H          -8.2309    1.5526   10.7366 H       1  UNL1        0.0618
     63 H          -7.1067   -0.2812    9.5361 H       1  UNL1        0.0618
     64 H          -4.7951   -0.0065    8.7408 H       1  UNL1        0.0624
     65 H          -2.4772    3.8886    4.5886 H       1  UNL1        0.0624
     66 H          -3.1475    4.1991    2.2533 H       1  UNL1        0.0618
     67 H          -5.4559    4.8540    1.6960 H       1  UNL1        0.0618
     68 H          -7.1100    5.1985    3.4949 H       1  UNL1        0.0618
     69 H          -6.4422    4.8853    5.8532 H       1  UNL1        0.0624
     70 H           0.6790    5.3360    7.5593 H       1  UNL1        0.0624
     71 H           2.3760    6.9805    6.8698 H       1  UNL1        0.0618
     72 H           2.0978    9.3606    7.4663 H       1  UNL1        0.0618
     73 H           0.1066   10.0902    8.7223 H       1  UNL1        0.0618
     74 H          -1.6086    8.4621    9.3808 H       1  UNL1        0.0624
     75 H          -1.7631    6.6071   11.4926 H       1  UNL1        0.0624
     76 H          -3.4008    7.8132   12.9020 H       1  UNL1        0.0618
     77 H          -5.6560    8.2958   12.0221 H       1  UNL1        0.0618
     78 H          -6.2615    7.5999    9.7358 H       1  UNL1        0.0618
     79 H          -4.6447    6.4180    8.3283 H       1  UNL1        0.0624
@<TRIPOS>BOND
     1    67    29    1
     2    66    28    1
     3    29    28   ar
     4    29    30   ar
     5    28    27   ar
     6    68    30    1
     7    30    31   ar
     8    27    65    1
     9    27    26   ar
    10    31    26   ar
    11    31    69    1
    12    26     3    1
    13    47     6    1
    14    48     7    1
    15    46     6    1
    16    58    18    1
    17    49     7    1
    18    71    34    1
    19     6     3    1
    20     6     2    1
    21     3     7    1
    22     7     4    1
    23    34    35   ar
    24    34    33   ar
    25    72    35    1
    26    70    33    1
    27    59    19    1
    28    35    36   ar
    29    33    32   ar
    30    18    19   ar
    31    18    17   ar
    32    45     5    1
    33    57    17    1
    34    19    14   ar
    35    79    43    1
    36    36    73    1
    37    36    37   ar
    38    32    37   ar
    39    32     4    1
    40    17    16   ar
    41    64    25    1
    42    37    74    1
    43     2     5    1
    44     2    20    1
    45     4    38    1
    46     5    44    1
    47     5     1    1
    48    25    20   ar
    49    25    24   ar
    50    43    38   ar
    51    43    42   ar
    52    20    21   ar
    53    63    24    1
    54    14     1    1
    55    14    15   ar
    56    24    23   ar
    57    78    42    1
    58    38    39   ar
    59    16    15   ar
    60    16    56    1
    61    42    41   ar
    62    21    60    1
    63    21    22   ar
    64     1     8    1
    65    23    22   ar
    66    23    62    1
    67    15    55    1
    68    22    61    1
    69    50     9    1
    70    39    75    1
    71    39    40   ar
    72    41    40   ar
    73    41    77    1
    74     9     8   ar
    75     9    10   ar
    76     8    13   ar
    77    40    76    1
    78    51    10    1
    79    10    11   ar
    80    13    54    1
    81    13    12   ar
    82    11    12   ar
    83    11    52    1
    84    12    53    1
