@<TRIPOS>MOLECULE
1,2
 33 32 0 0 0
SMALL
GASTEIGER

@<TRIPOS>ATOM
      1 AS          6.1819    2.5501   -2.1566 As      1  UNL1        0.0000
      2 P           9.2465    4.4113   -2.2519 P.3     1  UNL1        0.0000
      3 SI          9.7332    2.4148   -1.3178 Si      1  UNL1        0.0000
      4 C           7.2892    0.9715   -1.7505 C.3     1  UNL1        0.0000
      5 C           8.7088    1.1152   -2.2940 C.3     1  UNL1        0.0000
      6 C           5.1745    1.8276   -3.6528 C.3     1  UNL1        0.0000
      7 C           4.8330    2.3290   -0.7733 C.3     1  UNL1        0.0000
      8 C          10.1414    5.5814   -1.1690 C.3     1  UNL1        0.0000
      9 C          10.3299    4.4432   -3.7251 C.3     1  UNL1        0.0000
     10 C           9.1440    2.5342    0.4975 C.3     1  UNL1        0.0000
     11 C          11.5903    1.9772   -1.4162 C.3     1  UNL1        0.0000
     12 H           6.7927    0.1006   -2.2001 H       1  UNL1        0.0000
     13 H           7.3083    0.8155   -0.6676 H       1  UNL1        0.0000
     14 H           9.2134    0.1456   -2.2781 H       1  UNL1        0.0000
     15 H           8.6495    1.4275   -3.3448 H       1  UNL1        0.0000
     16 H           4.6921    0.8817   -3.3889 H       1  UNL1        0.0000
     17 H           4.4102    2.5516   -3.9494 H       1  UNL1        0.0000
     18 H           5.8383    1.6638   -4.5059 H       1  UNL1        0.0000
     19 H           4.4941    1.2898   -0.7172 H       1  UNL1        0.0000
     20 H           5.2319    2.6276    0.1993 H       1  UNL1        0.0000
     21 H           3.9808    2.9743   -1.0052 H       1  UNL1        0.0000
     22 H          11.1886    5.2969   -1.0579 H       1  UNL1        0.0000
     23 H          10.0761    6.5777   -1.6105 H       1  UNL1        0.0000
     24 H           9.6580    5.6019   -0.1929 H       1  UNL1        0.0000
     25 H          11.3723    4.2816   -3.4482 H       1  UNL1        0.0000
     26 H          10.0102    3.6705   -4.4243 H       1  UNL1        0.0000
     27 H          10.2240    5.4164   -4.2088 H       1  UNL1        0.0000
     28 H           9.1183    1.5627    0.9825 H       1  UNL1        0.0000
     29 H           9.7970    3.1745    1.0834 H       1  UNL1        0.0000
     30 H           8.1402    2.9598    0.5330 H       1  UNL1        0.0000
     31 H          11.7994    1.0776   -0.8486 H       1  UNL1        0.0000
     32 H          11.9076    1.8044   -2.4391 H       1  UNL1        0.0000
     33 H          12.2011    2.7737   -1.0056 H       1  UNL1        0.0000
@<TRIPOS>BOND
     1    18     6    1
     2    26     9    1
     3    27     9    1
     4    17     6    1
     5     9    25    1
     6     9     2    1
     7     6    16    1
     8     6     1    1
     9    15     5    1
    10    32    11    1
    11     5    14    1
    12     5     4    1
    13     5     3    1
    14     2     3    1
    15     2     8    1
    16    12     4    1
    17     1     4    1
    18     1     7    1
    19     4    13    1
    20    23     8    1
    21    11     3    1
    22    11    33    1
    23    11    31    1
    24     3    10    1
    25     8    22    1
    26     8    24    1
    27    21     7    1
    28     7    19    1
    29     7    20    1
    30    10    30    1
    31    10    28    1
    32    10    29    1
