@<TRIPOS>MOLECULE
1,3,4,12
 27 26 0 0 0
SMALL
GASTEIGER

@<TRIPOS>ATOM
      1 P           3.4570    5.1549    2.9963 P.3     1  UNL1        0.0000
      2 SI          4.4361    3.3325    5.5946 Si      1  UNL1        0.0000
      3 O           3.2165    4.7159    1.5912 O.2     1  UNL1        0.0000
      4 O           2.2559    3.2442    3.8087 O.3     1  UNL1        0.0000
      5 O           4.7967    6.0477    3.1303 O.3     1  UNL1        0.0000
      6 O           2.2269    6.1111    3.3589 O.3     1  UNL1        0.0000
      7 C           5.2068    6.8646    2.0416 C.3     1  UNL1        0.0000
      8 C           2.0602    6.6264    4.6675 C.3     1  UNL1        0.0000
      9 C           4.6767    4.9719    6.5487 C.3     1  UNL1        0.0000
     10 C           6.1496    2.6425    5.1074 C.3     1  UNL1        0.0000
     11 C           3.3661    2.1029    6.5807 C.3     1  UNL1        0.0000
     12 C           3.5512    3.6594    3.9602 C.3     1  UNL1        0.0000
     13 H           6.2950    6.9066    2.0659 H       1  UNL1        0.0000
     14 H           4.7925    7.8687    2.1476 H       1  UNL1        0.0000
     15 H           4.8702    6.4317    1.0988 H       1  UNL1        0.0000
     16 H           1.2618    7.3657    4.6070 H       1  UNL1        0.0000
     17 H           2.9788    7.0968    5.0222 H       1  UNL1        0.0000
     18 H           1.7736    5.8272    5.3526 H       1  UNL1        0.0000
     19 H           3.7546    5.3341    6.9924 H       1  UNL1        0.0000
     20 H           5.0645    5.7470    5.8947 H       1  UNL1        0.0000
     21 H           5.3902    4.8306    7.3530 H       1  UNL1        0.0000
     22 H           6.0561    1.7125    4.5522 H       1  UNL1        0.0000
     23 H           6.7604    2.4448    5.9820 H       1  UNL1        0.0000
     24 H           6.6891    3.3495    4.4815 H       1  UNL1        0.0000
     25 H           3.8260    1.8594    7.5328 H       1  UNL1        0.0000
     26 H           3.2397    1.1817    6.0191 H       1  UNL1        0.0000
     27 H           2.3761    2.5044    6.7788 H       1  UNL1        0.0000
@<TRIPOS>BOND
     1    15     7    1
     2     3     1    2
     3     7    13    1
     4     7    14    1
     5     7     5    1
     6     1     5    1
     7     1     6    1
     8     1    12    1
     9     6     8    1
    10     4    12    1
    11    12     2    1
    12    24    10    1
    13    22    10    1
    14    16     8    1
    15     8    17    1
    16     8    18    1
    17    10     2    1
    18    10    23    1
    19     2     9    1
    20     2    11    1
    21    20     9    1
    22    26    11    1
    23     9    19    1
    24     9    21    1
    25    11    27    1
    26    11    25    1
