@<TRIPOS>MOLECULE
2,3,4,35
 88 92 0 0 0
SMALL
GASTEIGER

@<TRIPOS>ATOM
      1 SI          5.9008    9.4827    7.8758 Si      1  UNL1        0.0000
      2 N           7.2471    8.9315    8.8024 N.3     1  UNL1        0.0000
      3 C           6.9267    9.8157    6.3198 C.3     1  UNL1        0.0000
      4 C           7.3811    8.8283    5.3899 C.ar    1  UNL1        0.0000
      5 C           6.7955    7.6397    4.9235 C.ar    1  UNL1        0.0000
      6 H           5.8376    7.3517    5.3270 H       1  UNL1        0.0000
      7 C           7.3718    6.8929    3.9120 C.ar    1  UNL1        0.0000
      8 C           6.5990    5.7009    3.3708 C.3     1  UNL1        0.0000
      9 C           7.5361    4.7377    2.6351 C.3     1  UNL1        0.0000
     10 H           8.1593    4.2209    3.3678 H       1  UNL1        0.0000
     11 H           6.9401    3.9795    2.1208 H       1  UNL1        0.0000
     12 C           8.4211    5.4522    1.6301 C.3     1  UNL1        0.0000
     13 H           7.7955    5.9525    0.8890 H       1  UNL1        0.0000
     14 H           9.0339    4.7206    1.0973 H       1  UNL1        0.0000
     15 C           9.3396    6.4864    2.2901 C.3     1  UNL1        0.0000
     16 C           8.5974    7.3071    3.3322 C.ar    1  UNL1        0.0000
     17 C           9.1909    8.4804    3.7689 C.ar    1  UNL1        0.0000
     18 H          10.1092    8.8228    3.3130 H       1  UNL1        0.0000
     19 C           8.6141    9.2554    4.7739 C.ar    1  UNL1        0.0000
     20 C           8.9423   10.5403    5.3280 C.ar    1  UNL1        0.0000
     21 C           9.9246   11.4843    5.0339 C.ar    1  UNL1        0.0000
     22 H          10.6546   11.2554    4.2706 H       1  UNL1        0.0000
     23 C           9.9562   12.7141    5.6730 C.ar    1  UNL1        0.0000
     24 C          11.0297   13.7055    5.2574 C.3     1  UNL1        0.0000
     25 C          10.7285   15.0995    5.8187 C.3     1  UNL1        0.0000
     26 H          11.6102   15.7332    5.6972 H       1  UNL1        0.0000
     27 H           9.9200   15.5489    5.2393 H       1  UNL1        0.0000
     28 C          10.3316   15.0473    7.2830 C.3     1  UNL1        0.0000
     29 H          10.2193   16.0622    7.6716 H       1  UNL1        0.0000
     30 H          11.1251   14.5645    7.8566 H       1  UNL1        0.0000
     31 C           9.0214   14.2804    7.4942 C.3     1  UNL1        0.0000
     32 C           9.0035   12.9949    6.6821 C.ar    1  UNL1        0.0000
     33 C           7.9955   12.0861    6.9554 C.ar    1  UNL1        0.0000
     34 H           7.2262   12.3373    7.6697 H       1  UNL1        0.0000
     35 C           7.9053   10.8604    6.2777 C.ar    1  UNL1        0.0000
     36 C           5.9029    4.9000    4.4798 C.3     1  UNL1        0.0000
     37 H           6.6067    4.6510    5.2698 H       1  UNL1        0.0000
     38 H           5.5095    3.9736    4.0645 H       1  UNL1        0.0000
     39 H           5.0690    5.4449    4.9131 H       1  UNL1        0.0000
     40 C           5.5219    6.2422    2.4169 C.3     1  UNL1        0.0000
     41 H           4.9691    5.4219    1.9629 H       1  UNL1        0.0000
     42 H           5.9633    6.8455    1.6283 H       1  UNL1        0.0000
     43 H           4.8235    6.8717    2.9633 H       1  UNL1        0.0000
     44 C          10.5089    5.7802    2.9964 C.3     1  UNL1        0.0000
     45 H          11.1724    6.5113    3.4535 H       1  UNL1        0.0000
     46 H          11.0827    5.1917    2.2828 H       1  UNL1        0.0000
     47 H          10.1491    5.1202    3.7817 H       1  UNL1        0.0000
     48 C           9.9035    7.3718    1.1674 C.3     1  UNL1        0.0000
     49 H           9.1383    8.0500    0.7958 H       1  UNL1        0.0000
     50 H          10.2396    6.7452    0.3432 H       1  UNL1        0.0000
     51 H          10.7541    7.9598    1.5004 H       1  UNL1        0.0000
     52 C          12.3915   13.2128    5.7665 C.3     1  UNL1        0.0000
     53 H          12.6185   12.2327    5.3544 H       1  UNL1        0.0000
     54 H          12.3917   13.1264    6.8500 H       1  UNL1        0.0000
     55 H          13.1796   13.9031    5.4711 H       1  UNL1        0.0000
     56 C          11.0892   13.8327    3.7269 C.3     1  UNL1        0.0000
     57 H          11.4977   12.9406    3.2612 H       1  UNL1        0.0000
     58 H          11.7259   14.6721    3.4532 H       1  UNL1        0.0000
     59 H          10.0947   14.0064    3.3214 H       1  UNL1        0.0000
     60 C           8.9138   13.9651    8.9953 C.3     1  UNL1        0.0000
     61 H           9.6582   13.2246    9.2826 H       1  UNL1        0.0000
     62 H           7.9314   13.5862    9.2616 H       1  UNL1        0.0000
     63 H           9.0895   14.8711    9.5726 H       1  UNL1        0.0000
     64 C           7.8270   15.1524    7.0818 C.3     1  UNL1        0.0000
     65 H           7.8793   15.4070    6.0264 H       1  UNL1        0.0000
     66 H           7.8131   16.0736    7.6613 H       1  UNL1        0.0000
     67 H           6.8916   14.6249    7.2503 H       1  UNL1        0.0000
     68 C           4.9161   11.0434    8.4369 C.3     1  UNL1        0.0000
     69 H           4.1250   10.7624    9.1252 H       1  UNL1        0.0000
     70 H           4.4468   11.5304    7.5881 H       1  UNL1        0.0000
     71 H           5.5310   11.7824    8.9390 H       1  UNL1        0.0000
     72 C           4.4873    8.2057    7.5998 C.3     1  UNL1        0.0000
     73 H           3.8377    8.1663    8.4683 H       1  UNL1        0.0000
     74 H           4.8574    7.2010    7.4299 H       1  UNL1        0.0000
     75 H           3.8729    8.4863    6.7504 H       1  UNL1        0.0000
     76 C           7.3620    8.9303   10.2486 C.3     1  UNL1        0.0000
     77 C           6.0893    8.4004   10.9280 C.3     1  UNL1        0.0000
     78 H           5.8565    7.4069   10.5547 H       1  UNL1        0.0000
     79 H           5.2502    9.0539   10.7097 H       1  UNL1        0.0000
     80 H           6.2255    8.3518   12.0059 H       1  UNL1        0.0000
     81 C           8.5394    8.0175   10.6516 C.3     1  UNL1        0.0000
     82 H           8.2893    6.9836   10.4228 H       1  UNL1        0.0000
     83 H           8.7311    8.0971   11.7209 H       1  UNL1        0.0000
     84 H           9.4451    8.3007   10.0976 H       1  UNL1        0.0000
     85 C           7.6363   10.3644   10.7500 C.3     1  UNL1        0.0000
     86 H           6.7268   10.9548   10.6854 H       1  UNL1        0.0000
     87 H           8.3968   10.8311   10.1203 H       1  UNL1        0.0000
     88 H           7.9720   10.3621   11.7847 H       1  UNL1        0.0000
@<TRIPOS>BOND
     1    50    48    1
     2    49    48    1
     3    13    12    1
     4    14    12    1
     5    48    51    1
     6    48    15    1
     7    42    40    1
     8    12    15    1
     9    12     9    1
    10    41    40    1
    11    11     9    1
    12    46    44    1
    13    15    44    1
    14    15    16    1
    15    40    43    1
    16    40     8    1
    17     9    10    1
    18     9     8    1
    19    44    45    1
    20    44    47    1
    21    57    56    1
    22    18    17    1
    23    59    56    1
    24    16    17   ar
    25    16     7   ar
    26     8     7    1
    27     8    36    1
    28    58    56    1
    29    56    24    1
    30    17    19   ar
    31     7     5   ar
    32    38    36    1
    33    22    21    1
    34    36    39    1
    35    36    37    1
    36    19    20    1
    37    19     4   ar
    38     5     6    1
    39     5     4   ar
    40    21    20   ar
    41    21    23   ar
    42    27    25    1
    43    24    23    1
    44    24    52    1
    45    24    25    1
    46    20    35   ar
    47    53    52    1
    48     4     3    1
    49    55    52    1
    50    23    32   ar
    51    26    25    1
    52    52    54    1
    53    25    28    1
    54    65    64    1
    55    35     3    1
    56    35    33   ar
    57     3     1    1
    58    32    33   ar
    59    32    31    1
    60    75    72    1
    61    33    34    1
    62    64    67    1
    63    64    31    1
    64    64    66    1
    65    28    31    1
    66    28    29    1
    67    28    30    1
    68    74    72    1
    69    31    60    1
    70    70    68    1
    71    72     1    1
    72    72    73    1
    73     1    68    1
    74     1     2    1
    75    68    71    1
    76    68    69    1
    77     2    76    1
    78    60    62    1
    79    60    61    1
    80    60    63    1
    81    84    81    1
    82    87    85    1
    83    76    81    1
    84    76    85    1
    85    76    77    1
    86    82    81    1
    87    78    77    1
    88    81    83    1
    89    86    85    1
    90    79    77    1
    91    85    88    1
    92    77    80    1
