@<TRIPOS>MOLECULE
1,2,3,5
 57 57 0 0 0
SMALL
GASTEIGER

@<TRIPOS>ATOM
      1 N           2.9654   -0.0999   16.4940 N.pl3   1  UNL1       -0.2193
      2 C           3.5617   -1.0946   17.2193 C.2     1  UNL1        0.0251
      3 C           4.3310   -2.0222   16.5903 C.2     1  UNL1       -0.0544
      4 H           4.7148   -2.8609   17.1687 H       1  UNL1        0.0597
      5 C           4.6452   -1.8982   15.1209 C.3     1  UNL1        0.0165
      6 C           3.2711   -1.1943   18.6989 C.3     1  UNL1       -0.0249
      7 H           3.7391   -2.0794   19.1258 H       1  UNL1        0.0290
      8 H           2.1927   -1.2554   18.8574 H       1  UNL1        0.0290
      9 H           3.6323   -0.3152   19.2297 H       1  UNL1        0.0290
     10 C           5.6799   -0.7898   14.8241 C.3     1  UNL1       -0.0513
     11 H           5.2255    0.1852   15.0207 H       1  UNL1        0.0242
     12 H           5.9897   -0.8050   13.7789 H       1  UNL1        0.0242
     13 H           6.5736   -0.8821   15.4529 H       1  UNL1        0.0242
     14 P           5.1842   -3.4648   14.4879 P.3     1  UNL1       -0.1194
     15 C           5.5818   -3.3782   12.7114 C.3     1  UNL1       -0.0470
     16 H           4.8613   -2.7258   12.2194 H       1  UNL1        0.0275
     17 H           5.5253   -4.3725   12.2724 H       1  UNL1        0.0275
     18 H           6.5863   -2.9811   12.5750 H       1  UNL1        0.0275
     19 C           3.9211   -4.7551   14.6888 C.3     1  UNL1       -0.0470
     20 H           3.7048   -4.8935   15.7487 H       1  UNL1        0.0275
     21 H           4.2743   -5.6919   14.2594 H       1  UNL1        0.0275
     22 H           3.0001   -4.4427   14.1922 H       1  UNL1        0.0275
     23 C           6.7170   -4.1673   15.2674 C.3     1  UNL1       -0.0314
     24 H           7.5034   -3.4172   15.1330 H       1  UNL1        0.0314
     25 H           6.5240   -4.2475   16.3407 H       1  UNL1        0.0314
     26 C           7.1826   -5.5067   14.7150 C.3     1  UNL1       -0.0291
     27 H           7.3198   -5.4428   13.6329 H       1  UNL1        0.0316
     28 H           6.4562   -6.2957   14.9263 H       1  UNL1        0.0316
     29 P           8.8483   -5.9772   15.4399 P.3     1  UNL1       -0.1119
     30 C           8.9617   -7.6563   14.6682 C.3     1  UNL1       -0.0445
     31 H           9.8127   -8.1810   15.0978 H       1  UNL1        0.0277
     32 H           9.1308   -7.5503   13.5987 H       1  UNL1        0.0277
     33 H           8.0570   -8.2383   14.8389 H       1  UNL1        0.0277
     34 C           8.2732   -6.5108   17.1182 C.3     1  UNL1       -0.0445
     35 H           7.3959   -7.1539   17.0568 H       1  UNL1        0.0277
     36 H           8.0466   -5.6374   17.7260 H       1  UNL1        0.0277
     37 H           9.0839   -7.0532   17.6005 H       1  UNL1        0.0277
     38 C           2.5036    1.0727   17.0776 C.ar    1  UNL1        0.0591
     39 C           1.1408    1.4127   16.9575 C.ar    1  UNL1       -0.0270
     40 C           0.6786    2.6000   17.4940 C.ar    1  UNL1       -0.0541
     41 H          -0.3694    2.8493   17.3958 H       1  UNL1        0.0623
     42 C           1.5225    3.4754   18.1672 C.ar    1  UNL1       -0.0498
     43 C           2.8579    3.1323   18.2842 C.ar    1  UNL1       -0.0541
     44 H           3.5372    3.8009   18.7961 H       1  UNL1        0.0623
     45 C           3.3666    1.9565   17.7483 C.ar    1  UNL1       -0.0270
     46 C           0.2045    0.4821   16.2441 C.3     1  UNL1       -0.0379
     47 H           0.4565    0.4542   15.1750 H       1  UNL1        0.0278
     48 H          -0.8262    0.8113   16.3564 H       1  UNL1        0.0278
     49 H           0.2916   -0.5366   16.6430 H       1  UNL1        0.0278
     50 C           0.9962    4.7650   18.7218 C.3     1  UNL1       -0.0397
     51 H           0.0423    4.6093   19.2225 H       1  UNL1        0.0278
     52 H           0.8373    5.4801   17.9141 H       1  UNL1        0.0278
     53 H           1.6980    5.1998   19.4295 H       1  UNL1        0.0278
     54 C           4.8446    1.6991   17.8752 C.3     1  UNL1       -0.0379
     55 H           5.4021    2.5261   17.4346 H       1  UNL1        0.0278
     56 H           5.1369    0.7809   17.3725 H       1  UNL1        0.0278
     57 H           5.1358    1.6289   18.9244 H       1  UNL1        0.0278
@<TRIPOS>BOND
     1    16    15    1
     2    17    15    1
     3    18    15    1
     4    15    14    1
     5    32    30    1
     6    27    26    1
     7    12    10    1
     8    22    19    1
     9    21    19    1
    10    14    19    1
    11    14     5    1
    12    14    23    1
    13    30    33    1
    14    30    31    1
    15    30    29    1
    16    19    20    1
    17    26    28    1
    18    26    23    1
    19    26    29    1
    20    10    11    1
    21    10     5    1
    22    10    13    1
    23     5     3    1
    24    24    23    1
    25    47    46    1
    26    23    25    1
    27    29    34    1
    28    46    48    1
    29    46    49    1
    30    46    39    1
    31     1    38    1
    32     1     2    1
    33     3     4    1
    34     3     2    2
    35    39    38   ar
    36    39    40   ar
    37    35    34    1
    38    38    45   ar
    39    34    37    1
    40    34    36    1
    41     2     6    1
    42    56    54    1
    43    41    40    1
    44    55    54    1
    45    40    42   ar
    46    45    54    1
    47    45    43   ar
    48    54    57    1
    49    52    50    1
    50    42    43   ar
    51    42    50    1
    52    43    44    1
    53     6     8    1
    54     6     7    1
    55     6     9    1
    56    50    51    1
    57    50    53    1
