@<TRIPOS>MOLECULE
2,4,7
 44 44 0 0 0
SMALL
GASTEIGER

@<TRIPOS>ATOM
      1 SI         -1.8403    4.3153    5.3768 Si      1  UNL1        0.0000
      2 N          -0.6808    4.1904    4.1026 N.3     1  UNL1        0.0000
      3 C          -2.6411    2.6364    4.9729 C.3     1  UNL1        0.0000
      4 C          -2.0147    1.3855    5.2483 C.2     1  UNL1        0.0000
      5 C          -2.5068    0.4163    4.3409 C.2     1  UNL1        0.0000
      6 C          -3.4039    1.0714    3.4497 C.2     1  UNL1        0.0000
      7 C          -3.4814    2.4339    3.8340 C.2     1  UNL1        0.0000
      8 C          -1.1820    1.0997    6.4695 C.3     1  UNL1        0.0000
      9 H          -0.7898    0.0831    6.4567 H       1  UNL1        0.0000
     10 H          -1.7951    1.2016    7.3667 H       1  UNL1        0.0000
     11 H          -0.3497    1.7970    6.5603 H       1  UNL1        0.0000
     12 C          -2.3819   -1.0763    4.4739 C.3     1  UNL1        0.0000
     13 H          -1.4451   -1.3685    4.9485 H       1  UNL1        0.0000
     14 H          -2.4504   -1.5731    3.5069 H       1  UNL1        0.0000
     15 H          -3.1951   -1.4591    5.0958 H       1  UNL1        0.0000
     16 C          -4.2824    0.3761    2.4470 C.3     1  UNL1        0.0000
     17 H          -5.2109    0.0471    2.9202 H       1  UNL1        0.0000
     18 H          -3.7914   -0.5057    2.0374 H       1  UNL1        0.0000
     19 H          -4.5402    1.0351    1.6192 H       1  UNL1        0.0000
     20 C          -4.4143    3.4576    3.2422 C.3     1  UNL1        0.0000
     21 H          -5.1288    2.9839    2.5714 H       1  UNL1        0.0000
     22 H          -3.8721    4.2255    2.6818 H       1  UNL1        0.0000
     23 H          -4.9725    3.9521    4.0356 H       1  UNL1        0.0000
     24 C          -1.0861    4.4296    7.1422 C.3     1  UNL1        0.0000
     25 H          -0.0916    3.9985    7.1927 H       1  UNL1        0.0000
     26 H          -1.7063    3.9217    7.8724 H       1  UNL1        0.0000
     27 H          -1.0051    5.4671    7.4486 H       1  UNL1        0.0000
     28 C          -3.1481    5.7268    5.3812 C.3     1  UNL1        0.0000
     29 H          -2.7540    6.6071    5.8792 H       1  UNL1        0.0000
     30 H          -4.0466    5.4336    5.9146 H       1  UNL1        0.0000
     31 H          -3.4402    6.0220    4.3794 H       1  UNL1        0.0000
     32 C           0.0625    5.3170    3.5623 C.3     1  UNL1        0.0000
     33 C           0.2806    6.4295    4.5968 C.3     1  UNL1        0.0000
     34 H          -0.6679    6.8676    4.8870 H       1  UNL1        0.0000
     35 H           0.9140    7.2104    4.1813 H       1  UNL1        0.0000
     36 H           0.7592    6.0218    5.4823 H       1  UNL1        0.0000
     37 C          -0.6940    5.9029    2.3550 C.3     1  UNL1        0.0000
     38 H          -0.8954    5.1072    1.6324 H       1  UNL1        0.0000
     39 H          -0.1126    6.6857    1.8726 H       1  UNL1        0.0000
     40 H          -1.6408    6.3219    2.6876 H       1  UNL1        0.0000
     41 C           1.4475    4.8373    3.0909 C.3     1  UNL1        0.0000
     42 H           2.0122    4.4514    3.9384 H       1  UNL1        0.0000
     43 H           2.0087    5.6593    2.6518 H       1  UNL1        0.0000
     44 H           1.3411    4.0540    2.3409 H       1  UNL1        0.0000
@<TRIPOS>BOND
     1    19    16    1
     2    38    37    1
     3    39    37    1
     4    18    16    1
     5    44    41    1
     6    37    40    1
     7    37    32    1
     8    16    17    1
     9    16     6    1
    10    21    20    1
    11    43    41    1
    12    22    20    1
    13    41    32    1
    14    41    42    1
    15    20     7    1
    16    20    23    1
    17     6     7    2
    18     6     5    1
    19    14    12    1
    20    32     2    1
    21    32    33    1
    22     7     3    1
    23     2     1    1
    24    35    33    1
    25     5    12    1
    26     5     4    2
    27    31    28    1
    28    12    13    1
    29    12    15    1
    30    33    34    1
    31    33    36    1
    32     3     4    1
    33     3     1    1
    34     4     8    1
    35     1    28    1
    36     1    24    1
    37    28    29    1
    38    28    30    1
    39     9     8    1
    40     8    11    1
    41     8    10    1
    42    24    25    1
    43    24    27    1
    44    24    26    1
