@<TRIPOS>MOLECULE
2,4,26
 44 46 0 0 0
SMALL
GASTEIGER

@<TRIPOS>ATOM
      1 SI          2.9650    3.6056    7.8765 Si      1  UNL1        0.0000
      2 N           1.2689    3.6050    7.5642 N.3     1  UNL1        0.0000
      3 C           2.7676    3.6055    9.7688 C.3     1  UNL1        0.0000
      4 C           2.2979    4.7464   10.4944 C.ar    1  UNL1        0.0000
      5 C           1.5779    4.3232   11.6794 C.ar    1  UNL1        0.0000
      6 C           1.0681    5.2656   12.5796 C.ar    1  UNL1        0.0000
      7 C           1.2196    6.6066   12.3042 C.ar    1  UNL1        0.0000
      8 C           1.8761    7.0281   11.1380 C.ar    1  UNL1        0.0000
      9 C           2.4079    6.1300   10.2418 C.ar    1  UNL1        0.0000
     10 C           3.9824    5.1188    7.2515 C.3     1  UNL1        0.0000
     11 C           0.6021    3.6050    6.2750 C.3     1  UNL1        0.0000
     12 C          -0.9254    3.6046    6.4971 C.3     1  UNL1        0.0000
     13 C           0.9714    4.8635    5.4717 C.3     1  UNL1        0.0000
     14 H           0.5706    4.9421   13.4856 H       1  UNL1        0.0000
     15 H           0.8339    7.3466   12.9898 H       1  UNL1        0.0000
     16 H           1.9727    8.0888   10.9523 H       1  UNL1        0.0000
     17 H           2.9495    6.4818    9.3746 H       1  UNL1        0.0000
     18 H           4.8242    5.3266    7.9040 H       1  UNL1        0.0000
     19 H           3.3790    6.0184    7.1846 H       1  UNL1        0.0000
     20 H           4.3842    4.9249    6.2620 H       1  UNL1        0.0000
     21 H          -1.4394    3.6044    5.5363 H       1  UNL1        0.0000
     22 H          -1.2202    4.5002    7.0522 H       1  UNL1        0.0000
     23 H           2.0269    4.8470    5.2189 H       1  UNL1        0.0000
     24 H           0.7726    5.7460    6.0790 H       1  UNL1        0.0000
     25 H           0.3911    4.9225    4.5540 H       1  UNL1        0.0000
     26 C           2.2977    2.4645   10.4941 C.ar    1  UNL1        0.0000
     27 C           1.5778    2.8874   11.6792 C.ar    1  UNL1        0.0000
     28 C           1.0680    1.9448   12.5792 C.ar    1  UNL1        0.0000
     29 C           1.2194    0.6039   12.3034 C.ar    1  UNL1        0.0000
     30 C           1.8757    0.1826   11.1371 C.ar    1  UNL1        0.0000
     31 C           2.4074    1.0810   10.2410 C.ar    1  UNL1        0.0000
     32 C           3.9834    2.0930    7.2514 C.3     1  UNL1        0.0000
     33 C           0.9720    2.3466    5.4717 C.3     1  UNL1        0.0000
     34 H           0.5707    2.2681   13.4854 H       1  UNL1        0.0000
     35 H           0.8338   -0.1363   12.9889 H       1  UNL1        0.0000
     36 H           1.9721   -0.8780   10.9510 H       1  UNL1        0.0000
     37 H           2.9490    0.7293    9.3737 H       1  UNL1        0.0000
     38 H           4.8252    1.8856    7.9040 H       1  UNL1        0.0000
     39 H           3.3805    1.1930    7.1842 H       1  UNL1        0.0000
     40 H           4.3853    2.2873    6.2620 H       1  UNL1        0.0000
     41 H          -1.2198    2.7089    7.0522 H       1  UNL1        0.0000
     42 H           2.0275    2.3637    5.2188 H       1  UNL1        0.0000
     43 H           0.7736    1.4640    6.0788 H       1  UNL1        0.0000
     44 H           0.3917    2.2875    4.5539 H       1  UNL1        0.0000
@<TRIPOS>BOND
     1    44    33    1
     2    25    13    1
     3    42    33    1
     4    23    13    1
     5    33    43    1
     6    33    11    1
     7    13    24    1
     8    13    11    1
     9    21    12    1
    10    20    10    1
    11    40    32    1
    12    11    12    1
    13    11     2    1
    14    12    22    1
    15    12    41    1
    16    39    32    1
    17    19    10    1
    18    32     1    1
    19    32    38    1
    20    10     1    1
    21    10    18    1
    22     2     1    1
    23     1     3    1
    24    37    31    1
    25    17     9    1
    26     3    26    1
    27     3     4    1
    28    31    26   ar
    29    31    30   ar
    30     9     4   ar
    31     9     8   ar
    32    26    27   ar
    33     4     5   ar
    34    36    30    1
    35    16     8    1
    36    30    29   ar
    37     8     7   ar
    38    27     5    1
    39    27    28   ar
    40     5     6   ar
    41    29    28   ar
    42    29    35    1
    43     7     6   ar
    44     7    15    1
    45    28    34    1
    46     6    14    1
