@<TRIPOS>MOLECULE
2,3,4,5
 44 46 0 0 0
SMALL
GASTEIGER

@<TRIPOS>ATOM
      1 SI          4.8797    4.7808    9.6934 Si      1  UNL1        0.0000
      2 N           3.7284    4.1553   10.8433 N.3     1  UNL1        0.0000
      3 C           7.1160    3.6510   11.3032 C.ar    1  UNL1        0.0000
      4 C           6.2006    3.5234   10.2068 C.3     1  UNL1        0.0000
      5 C           6.0019    2.1120   10.0271 C.ar    1  UNL1        0.0000
      6 C           6.7757    1.3782   10.9965 C.ar    1  UNL1        0.0000
      7 C           7.4673    2.3459   11.8029 C.ar    1  UNL1        0.0000
      8 C           7.7171    4.7792   11.8880 C.ar    1  UNL1        0.0000
      9 C           8.6032    4.6111   12.9275 C.ar    1  UNL1        0.0000
     10 C           8.9282    3.3392   13.4152 C.ar    1  UNL1        0.0000
     11 C           8.3734    2.2083   12.8555 C.ar    1  UNL1        0.0000
     12 C           5.2235    1.3940    9.1000 C.ar    1  UNL1        0.0000
     13 C           5.2476    0.0172    9.1226 C.ar    1  UNL1        0.0000
     14 C           6.0257   -0.6870   10.0507 C.ar    1  UNL1        0.0000
     15 C           6.7874   -0.0175   10.9845 C.ar    1  UNL1        0.0000
     16 C           5.3420    6.6144   10.0289 C.3     1  UNL1        0.0000
     17 C           4.4381    4.6815    7.8225 C.3     1  UNL1        0.0000
     18 C           2.2952    4.3424   10.8899 C.3     1  UNL1        0.0000
     19 C           1.8395    4.4179   12.3589 C.3     1  UNL1        0.0000
     20 C           1.8650    5.6366   10.1864 C.3     1  UNL1        0.0000
     21 C           1.6161    3.1396   10.2070 C.3     1  UNL1        0.0000
     22 H           7.5080    5.7676   11.5033 H       1  UNL1        0.0000
     23 H           9.0708    5.4766   13.3760 H       1  UNL1        0.0000
     24 H           9.6324    3.2492   14.2294 H       1  UNL1        0.0000
     25 H           8.6446    1.2250   13.2174 H       1  UNL1        0.0000
     26 H           4.6474    1.9195    8.3493 H       1  UNL1        0.0000
     27 H           4.6627   -0.5398    8.4035 H       1  UNL1        0.0000
     28 H           6.0281   -1.7670   10.0265 H       1  UNL1        0.0000
     29 H           7.3941   -0.5647   11.6944 H       1  UNL1        0.0000
     30 H           5.3825    6.8249   11.0942 H       1  UNL1        0.0000
     31 H           4.6080    7.2814    9.5885 H       1  UNL1        0.0000
     32 H           6.3042    6.8648    9.5947 H       1  UNL1        0.0000
     33 H           4.0905    5.6429    7.4586 H       1  UNL1        0.0000
     34 H           3.6568    3.9550    7.6226 H       1  UNL1        0.0000
     35 H           5.3036    4.4044    7.2292 H       1  UNL1        0.0000
     36 H           0.7671    4.5949   12.4145 H       1  UNL1        0.0000
     37 H           2.3588    5.2361   12.8581 H       1  UNL1        0.0000
     38 H           2.0758    3.4818   12.8704 H       1  UNL1        0.0000
     39 H           2.3569    6.4872   10.6502 H       1  UNL1        0.0000
     40 H           0.7881    5.7666   10.2644 H       1  UNL1        0.0000
     41 H           2.1367    5.6055    9.1360 H       1  UNL1        0.0000
     42 H           0.5345    3.1970   10.3074 H       1  UNL1        0.0000
     43 H           1.9745    2.2141   10.6633 H       1  UNL1        0.0000
     44 H           1.8689    3.1263    9.1489 H       1  UNL1        0.0000
@<TRIPOS>BOND
     1    35    17    1
     2    33    17    1
     3    34    17    1
     4    17     1    1
     5    26    12    1
     6    27    13    1
     7    12    13   ar
     8    12     5   ar
     9    13    14   ar
    10    41    20    1
    11    44    21    1
    12    31    16    1
    13    32    16    1
    14     1    16    1
    15     1     4    1
    16     1     2    1
    17    28    14    1
    18     5     4    1
    19     5     6   ar
    20    16    30    1
    21    14    15   ar
    22    20    40    1
    23    20    39    1
    24    20    18    1
    25     4     3    1
    26    21    42    1
    27    21    43    1
    28    21    18    1
    29     2    18    1
    30    18    19    1
    31    15     6   ar
    32    15    29    1
    33     6     7    1
    34     3     7   ar
    35     3     8   ar
    36    22     8    1
    37     7    11   ar
    38     8     9   ar
    39    19    36    1
    40    19    37    1
    41    19    38    1
    42    11    25    1
    43    11    10   ar
    44     9    23    1
    45     9    10   ar
    46    10    24    1
