@<TRIPOS>MOLECULE
2,4,26
 44 46 0 0 0
SMALL
GASTEIGER

@<TRIPOS>ATOM
      1 SI          2.9353    3.6090    7.8995 Si      1  UNL1        0.0000
      2 N           1.2438    3.6090    7.5565 N.3     1  UNL1        0.0000
      3 C           2.6836    3.6090    9.7795 C.3     1  UNL1        0.0000
      4 C           2.2298    4.7504   10.5141 C.ar    1  UNL1        0.0000
      5 C           1.5248    4.3259   11.7051 C.ar    1  UNL1        0.0000
      6 C           1.0742    5.2649   12.6386 C.ar    1  UNL1        0.0000
      7 C           1.2754    6.6048   12.3959 C.ar    1  UNL1        0.0000
      8 C           1.9322    7.0290   11.2321 C.ar    1  UNL1        0.0000
      9 C           2.4044    6.1334   10.3018 C.ar    1  UNL1        0.0000
     10 C           3.9515    5.1211    7.2936 C.3     1  UNL1        0.0000
     11 C           0.5952    3.6090    6.2566 C.3     1  UNL1        0.0000
     12 C          -0.9313    3.6090    6.4744 C.3     1  UNL1        0.0000
     13 C           0.9720    4.8625    5.4507 C.3     1  UNL1        0.0000
     14 H           0.5853    4.9371   13.5464 H       1  UNL1        0.0000
     15 H           0.9357    7.3408   13.1093 H       1  UNL1        0.0000
     16 H           2.0792    8.0881   11.0750 H       1  UNL1        0.0000
     17 H           2.9501    6.4834    9.4382 H       1  UNL1        0.0000
     18 H           4.7835    5.3274    7.9588 H       1  UNL1        0.0000
     19 H           3.3506    6.0211    7.2179 H       1  UNL1        0.0000
     20 H           4.3676    4.9258    6.3104 H       1  UNL1        0.0000
     21 H          -1.2300    4.5028    7.0270 H       1  UNL1        0.0000
     22 H          -1.4444    3.6090    5.5140 H       1  UNL1        0.0000
     23 H           0.7521    5.7528    6.0362 H       1  UNL1        0.0000
     24 H           0.4138    4.9034    4.5184 H       1  UNL1        0.0000
     25 H           2.0334    4.8515    5.2244 H       1  UNL1        0.0000
     26 C           2.2298    2.4676   10.5141 C.ar    1  UNL1        0.0000
     27 C           1.5248    2.8920   11.7051 C.ar    1  UNL1        0.0000
     28 C           1.0742    1.9530   12.6386 C.ar    1  UNL1        0.0000
     29 C           1.2754    0.6132   12.3959 C.ar    1  UNL1        0.0000
     30 C           1.9322    0.1890   11.2321 C.ar    1  UNL1        0.0000
     31 C           2.4044    1.0846   10.3018 C.ar    1  UNL1        0.0000
     32 C           3.9515    2.0969    7.2936 C.3     1  UNL1        0.0000
     33 C           0.9720    2.3555    5.4507 C.3     1  UNL1        0.0000
     34 H           0.5853    2.2809   13.5464 H       1  UNL1        0.0000
     35 H           0.9357   -0.1228   13.1093 H       1  UNL1        0.0000
     36 H           2.0792   -0.8701   11.0750 H       1  UNL1        0.0000
     37 H           2.9501    0.7346    9.4382 H       1  UNL1        0.0000
     38 H           4.7835    1.8906    7.9588 H       1  UNL1        0.0000
     39 H           3.3506    1.1969    7.2179 H       1  UNL1        0.0000
     40 H           4.3676    2.2922    6.3104 H       1  UNL1        0.0000
     41 H          -1.2300    2.7152    7.0270 H       1  UNL1        0.0000
     42 H           0.7521    1.4652    6.0362 H       1  UNL1        0.0000
     43 H           0.4138    2.3146    4.5185 H       1  UNL1        0.0000
     44 H           2.0334    2.3665    5.2244 H       1  UNL1        0.0000
@<TRIPOS>BOND
     1    24    13    1
     2    43    33    1
     3    44    33    1
     4    25    13    1
     5    33    42    1
     6    33    11    1
     7    13    23    1
     8    13    11    1
     9    22    12    1
    10    11    12    1
    11    11     2    1
    12    40    32    1
    13    20    10    1
    14    12    41    1
    15    12    21    1
    16    39    32    1
    17    19    10    1
    18    32     1    1
    19    32    38    1
    20    10     1    1
    21    10    18    1
    22     2     1    1
    23     1     3    1
    24    17     9    1
    25    37    31    1
    26     3    26    1
    27     3     4    1
    28    31    26   ar
    29    31    30   ar
    30     9     4   ar
    31     9     8   ar
    32    26    27   ar
    33     4     5   ar
    34    36    30    1
    35    16     8    1
    36    30    29   ar
    37     8     7   ar
    38    27     5    1
    39    27    28   ar
    40     5     6   ar
    41    29    28   ar
    42    29    35    1
    43     7     6   ar
    44     7    15    1
    45    28    34    1
    46     6    14    1
