@<TRIPOS>MOLECULE
3,5,6,7
 65 66 0 0 0
SMALL
GASTEIGER

@<TRIPOS>ATOM
      1 SI          4.2398   14.2191    2.9651 Si      1  UNL1        0.0000
      2 SI          3.0151    9.5876    2.9547 Si      1  UNL1        0.0000
      3 N           6.8664   10.0530    2.6190 N.3     1  UNL1        0.0000
      4 N           4.6662    9.0731    3.2293 N.3     1  UNL1        0.0000
      5 C           5.1707   12.6456    3.3357 C.2     1  UNL1        0.0000
      6 C           5.0127   11.4067    2.9754 C.2     1  UNL1        0.0000
      7 C           5.5603   10.1319    2.9928 C.3     1  UNL1        0.0000
      8 C           5.2813   15.6078    3.8030 C.3     1  UNL1        0.0000
      9 H           6.0993   15.1827    4.3855 H       1  UNL1        0.0000
     10 H           4.6729   16.2047    4.4756 H       1  UNL1        0.0000
     11 H           5.7131   16.2902    3.0771 H       1  UNL1        0.0000
     12 C           3.9806   14.6541    1.1104 C.3     1  UNL1        0.0000
     13 H           4.8683   14.4450    0.5202 H       1  UNL1        0.0000
     14 H           3.7351   15.7039    0.9776 H       1  UNL1        0.0000
     15 H           3.1688   14.0716    0.6856 H       1  UNL1        0.0000
     16 C           2.5072   14.2411    3.7803 C.3     1  UNL1        0.0000
     17 H           1.8466   13.5098    3.3274 H       1  UNL1        0.0000
     18 H           2.0435   15.2172    3.6739 H       1  UNL1        0.0000
     19 H           2.5652   14.0197    4.8414 H       1  UNL1        0.0000
     20 C           2.8992   10.4645    1.2603 C.3     1  UNL1        0.0000
     21 H           2.8146   11.5392    1.3759 H       1  UNL1        0.0000
     22 H           2.0308   10.1205    0.7068 H       1  UNL1        0.0000
     23 H           3.7789   10.2741    0.6539 H       1  UNL1        0.0000
     24 C           2.2838   10.6216    4.3949 C.3     1  UNL1        0.0000
     25 H           2.0904   10.0060    5.2692 H       1  UNL1        0.0000
     26 H           1.3385   11.0698    4.1062 H       1  UNL1        0.0000
     27 H           2.9520   11.4243    4.6908 H       1  UNL1        0.0000
     28 C           1.8384    8.0869    2.7854 C.3     1  UNL1        0.0000
     29 H           2.1078    7.4385    1.9585 H       1  UNL1        0.0000
     30 H           0.8425    8.4669    2.5812 H       1  UNL1        0.0000
     31 H           1.7634    7.4799    3.6808 H       1  UNL1        0.0000
     32 C           7.4247    8.8629    1.9994 C.3     1  UNL1        0.0000
     33 H           6.6895    8.0482    2.0034 H       1  UNL1        0.0000
     34 C           7.7841    9.1213    0.5253 C.3     1  UNL1        0.0000
     35 H           6.8787    9.4182   -0.0099 H       1  UNL1        0.0000
     36 H           8.4982    9.9427    0.4619 H       1  UNL1        0.0000
     37 C           8.3911    7.8720   -0.1061 C.3     1  UNL1        0.0000
     38 H           7.6630    7.0574   -0.0827 H       1  UNL1        0.0000
     39 H           8.6377    8.0685   -1.1518 H       1  UNL1        0.0000
     40 C           9.6450    7.4513    0.6546 C.3     1  UNL1        0.0000
     41 H          10.0733    6.5541    0.2028 H       1  UNL1        0.0000
     42 H          10.3915    8.2465    0.5903 H       1  UNL1        0.0000
     43 C           9.3104    7.1842    2.1187 C.3     1  UNL1        0.0000
     44 H          10.2148    6.9020    2.6630 H       1  UNL1        0.0000
     45 H           8.6106    6.3464    2.1785 H       1  UNL1        0.0000
     46 C           8.6785    8.4134    2.7671 C.3     1  UNL1        0.0000
     47 H           8.4123    8.1819    3.8033 H       1  UNL1        0.0000
     48 H           9.3948    9.2436    2.7870 H       1  UNL1        0.0000
     49 C           5.1030    7.9289    4.0125 C.3     1  UNL1        0.0000
     50 H           6.1828    8.0387    4.1633 H       1  UNL1        0.0000
     51 C           4.8508    6.5912    3.3093 C.3     1  UNL1        0.0000
     52 H           3.7791    6.4328    3.2137 H       1  UNL1        0.0000
     53 H           5.2723    6.6066    2.3022 H       1  UNL1        0.0000
     54 C           5.4626    5.4522    4.1202 C.3     1  UNL1        0.0000
     55 H           5.2944    4.5016    3.6094 H       1  UNL1        0.0000
     56 H           6.5428    5.5991    4.2043 H       1  UNL1        0.0000
     57 C           4.8471    5.4077    5.5156 C.3     1  UNL1        0.0000
     58 H           3.7794    5.1933    5.4308 H       1  UNL1        0.0000
     59 H           5.3037    4.6064    6.1006 H       1  UNL1        0.0000
     60 C           5.0382    6.7445    6.2257 C.3     1  UNL1        0.0000
     61 H           6.1055    6.9202    6.3840 H       1  UNL1        0.0000
     62 H           4.5599    6.7166    7.2070 H       1  UNL1        0.0000
     63 C           4.4506    7.8845    5.3975 C.3     1  UNL1        0.0000
     64 H           4.6090    8.8366    5.9049 H       1  UNL1        0.0000
     65 H           3.3767    7.7386    5.2823 H       1  UNL1        0.0000
@<TRIPOS>BOND
     1    39    37    1
     2    37    38    1
     3    37    34    1
     4    37    40    1
     5    35    34    1
     6    41    40    1
     7    36    34    1
     8    13    12    1
     9    34    32    1
    10    42    40    1
    11    23    20    1
    12    40    43    1
    13    15    12    1
    14    22    20    1
    15    14    12    1
    16    12     1    1
    17    20    21    1
    18    20     2    1
    19    29    28    1
    20    32    33    1
    21    32     3    1
    22    32    46    1
    23    43    45    1
    24    43    44    1
    25    43    46    1
    26    53    51    1
    27    30    28    1
    28     3     7    1
    29    46    48    1
    30    46    47    1
    31    28     2    1
    32    28    31    1
    33     2     4    1
    34     2    24    1
    35     1     5    1
    36     1    16    1
    37     1     8    1
    38     6     7    1
    39     6     5    2
    40     7     4    1
    41    11     8    1
    42    52    51    1
    43     4    49    1
    44    51    49    1
    45    51    54    1
    46    17    16    1
    47    55    54    1
    48    18    16    1
    49    16    19    1
    50     8     9    1
    51     8    10    1
    52    49    50    1
    53    49    63    1
    54    26    24    1
    55    54    56    1
    56    54    57    1
    57    24    27    1
    58    24    25    1
    59    65    63    1
    60    63    64    1
    61    63    60    1
    62    58    57    1
    63    57    59    1
    64    57    60    1
    65    60    61    1
    66    60    62    1
