@<TRIPOS>MOLECULE
2,4,8
 50 53 0 0 0
SMALL
GASTEIGER

@<TRIPOS>ATOM
      1 SI         20.6902    5.2417    2.6236 Si      1  UNL1        0.0000
      2 N          21.3259    4.0628    1.5073 N.3     1  UNL1        0.0000
      3 C          21.2424    4.2262    4.1215 C.3     1  UNL1        0.0000
      4 C          22.5815    4.1715    4.5753 C.3     1  UNL1        0.0000
      5 H          23.2984    4.9765    4.4637 H       1  UNL1        0.0000
      6 C          22.7430    3.0141    5.3724 C.ar    1  UNL1        0.0000
      7 C          21.5096    2.3013    5.3580 C.ar    1  UNL1        0.0000
      8 C          20.6123    3.0126    4.5220 C.3     1  UNL1        0.0000
      9 H          19.5548    2.8005    4.3878 H       1  UNL1        0.0000
     10 C          21.5361    6.9650    2.6344 C.3     1  UNL1        0.0000
     11 H          21.1613    7.6051    1.8433 H       1  UNL1        0.0000
     12 H          21.3520    7.4706    3.5771 H       1  UNL1        0.0000
     13 H          22.6118    6.8790    2.5123 H       1  UNL1        0.0000
     14 C          18.7869    5.4962    2.6636 C.3     1  UNL1        0.0000
     15 H          18.2588    4.5469    2.6417 H       1  UNL1        0.0000
     16 H          18.4892    6.0197    3.5665 H       1  UNL1        0.0000
     17 H          18.4434    6.0866    1.8205 H       1  UNL1        0.0000
     18 C          21.0309    4.0921    0.0824 C.3     1  UNL1        0.0000
     19 C          22.1313    3.3868   -0.7300 C.3     1  UNL1        0.0000
     20 H          23.1034    3.8268   -0.5083 H       1  UNL1        0.0000
     21 H          22.1545    2.3199   -0.5132 H       1  UNL1        0.0000
     22 H          21.9366    3.5088   -1.7938 H       1  UNL1        0.0000
     23 C          20.9412    5.5335   -0.4423 C.3     1  UNL1        0.0000
     24 H          21.8695    6.0613   -0.2402 H       1  UNL1        0.0000
     25 H          20.7649    5.5312   -1.5154 H       1  UNL1        0.0000
     26 H          20.1266    6.0661    0.0375 H       1  UNL1        0.0000
     27 C          19.6858    3.3847   -0.1630 C.3     1  UNL1        0.0000
     28 H          19.6738    2.4277    0.3597 H       1  UNL1        0.0000
     29 H          18.8726    3.9941    0.2211 H       1  UNL1        0.0000
     30 H          19.5243    3.2170   -1.2254 H       1  UNL1        0.0000
     31 C          23.8561    2.5384    6.1381 C.ar    1  UNL1        0.0000
     32 C          25.0618    3.2503    6.1928 C.ar    1  UNL1        0.0000
     33 H          25.1341    4.1954    5.6759 H       1  UNL1        0.0000
     34 C          26.1439    2.7588    6.8815 C.ar    1  UNL1        0.0000
     35 H          27.0682    3.3167    6.9139 H       1  UNL1        0.0000
     36 C          26.0445    1.5321    7.5300 C.ar    1  UNL1        0.0000
     37 H          26.8975    1.1294    8.0569 H       1  UNL1        0.0000
     38 C          24.8583    0.8339    7.5148 C.ar    1  UNL1        0.0000
     39 H          24.8178   -0.1082    8.0385 H       1  UNL1        0.0000
     40 C          23.7270    1.3155    6.8436 C.ar    1  UNL1        0.0000
     41 C          21.3282    1.1472    6.1883 C.ar    1  UNL1        0.0000
     42 C          20.0693    0.5485    6.3446 C.ar    1  UNL1        0.0000
     43 H          19.2164    0.9862    5.8459 H       1  UNL1        0.0000
     44 C          19.9057   -0.5688    7.1273 C.ar    1  UNL1        0.0000
     45 H          18.9303   -1.0195    7.2386 H       1  UNL1        0.0000
     46 C          21.0063   -1.1148    7.7793 C.ar    1  UNL1        0.0000
     47 H          20.8882   -1.9994    8.3880 H       1  UNL1        0.0000
     48 C          22.2418   -0.5179    7.6711 C.ar    1  UNL1        0.0000
     49 H          23.0638   -0.9533    8.2168 H       1  UNL1        0.0000
     50 C          22.4438    0.6298    6.8934 C.ar    1  UNL1        0.0000
@<TRIPOS>BOND
     1    22    19    1
     2    25    23    1
     3    30    27    1
     4    19    21    1
     5    19    20    1
     6    19    18    1
     7    23    24    1
     8    23    26    1
     9    23    18    1
    10    27    18    1
    11    27    29    1
    12    27    28    1
    13    18     2    1
    14     2     1    1
    15    17    14    1
    16    11    10    1
    17    13    10    1
    18     1    10    1
    19     1    14    1
    20     1     3    1
    21    10    12    1
    22    15    14    1
    23    14    16    1
    24     3     8    1
    25     3     4    1
    26     9     8    1
    27     5     4    1
    28     8     7    1
    29     4     6    1
    30     7     6   ar
    31     7    41   ar
    32     6    31   ar
    33    33    32    1
    34    43    42    1
    35    31    32   ar
    36    31    40   ar
    37    41    42   ar
    38    41    50   ar
    39    32    34   ar
    40    42    44   ar
    41    40    50   ar
    42    40    38   ar
    43    34    35    1
    44    34    36   ar
    45    50    48   ar
    46    44    45    1
    47    44    46   ar
    48    38    36   ar
    49    38    39    1
    50    36    37    1
    51    48    46   ar
    52    48    49    1
    53    46    47    1
