@<TRIPOS>MOLECULE
1,15,16,18
 31 30 0 0 0
SMALL
GASTEIGER

@<TRIPOS>ATOM
      1 C           4.2623    5.1137    5.6451 C.3     1  UNL1        0.0000
      2 SI          5.7443    5.2259    6.7550 Si      1  UNL1        0.0000
      3 C           5.9009    7.1019    7.1649 C.3     1  UNL1        0.0000
      4 H           5.3763    7.3436    8.0854 H       1  UNL1        0.0000
      5 H           5.4728    7.7213    6.3768 H       1  UNL1        0.0000
      6 H           6.9366    7.4015    7.2999 H       1  UNL1        0.0000
      7 C           7.4397    4.6161    6.0888 C.3     1  UNL1        0.0000
      8 H           8.1940    4.6429    6.8701 H       1  UNL1        0.0000
      9 H           7.7987    5.2303    5.2685 H       1  UNL1        0.0000
     10 H           7.3768    3.5921    5.7319 H       1  UNL1        0.0000
     11 C           5.4015    4.2813    8.3834 C.3     1  UNL1        0.0000
     12 H           6.1514    4.5073    9.1351 H       1  UNL1        0.0000
     13 H           5.4037    3.2078    8.2244 H       1  UNL1        0.0000
     14 H           4.4322    4.5489    8.7920 H       1  UNL1        0.0000
     15 C           3.4347    4.2482    5.1822 C.3     1  UNL1        0.0000
     16 C           2.3774    3.9524    4.3626 C.3     1  UNL1        0.0000
     17 H           1.5215    3.3798    4.7177 H       1  UNL1        0.0000
     18 N           2.4914    4.3939    3.0543 N.3     1  UNL1        0.0000
     19 C           1.5864    3.8752    2.0404 C.3     1  UNL1        0.0000
     20 C           2.0656    2.4853    1.5815 C.3     1  UNL1        0.0000
     21 H           3.0916    2.5451    1.2244 H       1  UNL1        0.0000
     22 H           1.4326    2.1034    0.7839 H       1  UNL1        0.0000
     23 H           2.0381    1.7891    2.4171 H       1  UNL1        0.0000
     24 C           0.1246    3.7637    2.5256 C.3     1  UNL1        0.0000
     25 H           0.0037    2.9414    3.2264 H       1  UNL1        0.0000
     26 H          -0.5319    3.5745    1.6796 H       1  UNL1        0.0000
     27 H          -0.1858    4.6861    3.0135 H       1  UNL1        0.0000
     28 C           1.6360    4.8572    0.8554 C.3     1  UNL1        0.0000
     29 H           1.4929    5.8811    1.2182 H       1  UNL1        0.0000
     30 H           0.8564    4.6223    0.1335 H       1  UNL1        0.0000
     31 H           2.5976    4.7936    0.3514 H       1  UNL1        0.0000
@<TRIPOS>BOND
     1    30    28    1
     2    31    28    1
     3    22    20    1
     4    28    29    1
     5    28    19    1
     6    21    20    1
     7    20    19    1
     8    20    23    1
     9    26    24    1
    10    19    24    1
    11    19    18    1
    12    24    27    1
    13    24    25    1
    14    18    16    1
    15    16    17    1
    16    16    15    1
    17    15     1    1
    18     9     7    1
    19     1     2    1
    20    10     7    1
    21     7     2    1
    22     7     8    1
    23     5     3    1
    24     2     3    1
    25     2    11    1
    26     3     6    1
    27     3     4    1
    28    13    11    1
    29    11    14    1
    30    11    12    1
