@<TRIPOS>MOLECULE
2,3,4,23
 51 54 0 0 0
SMALL
GASTEIGER

@<TRIPOS>ATOM
      1 SI          4.9012    3.1065    2.3079 Si      1  UNL1        0.0000
      2 N           3.3670    3.8983    2.5836 N.3     1  UNL1        0.0000
      3 C           4.1176    1.8379    1.1341 C.3     1  UNL1        0.0000
      4 C           3.3985    0.6669    1.5513 C.ar    1  UNL1        0.0000
      5 C           3.5223   -0.1490    2.6903 C.ar    1  UNL1        0.0000
      6 H           4.2759    0.0660    3.4347 H       1  UNL1        0.0000
      7 C           2.7066   -1.2491    2.8275 C.ar    1  UNL1        0.0000
      8 H           2.8050   -1.8806    3.6995 H       1  UNL1        0.0000
      9 C           1.7553   -1.5833    1.8557 C.ar    1  UNL1        0.0000
     10 H           1.1380   -2.4582    1.9981 H       1  UNL1        0.0000
     11 C           1.6144   -0.8175    0.7184 C.ar    1  UNL1        0.0000
     12 H           0.8954   -1.0896   -0.0434 H       1  UNL1        0.0000
     13 C           2.4230    0.3082    0.5526 C.ar    1  UNL1        0.0000
     14 C           2.5423    1.2563   -0.5202 C.ar    1  UNL1        0.0000
     15 C           1.9030    1.3579   -1.7564 C.ar    1  UNL1        0.0000
     16 H           1.1482    0.6364   -2.0412 H       1  UNL1        0.0000
     17 C           2.2532    2.3809   -2.6114 C.ar    1  UNL1        0.0000
     18 H           1.7697    2.4706   -3.5731 H       1  UNL1        0.0000
     19 C           3.2399    3.3069   -2.2511 C.ar    1  UNL1        0.0000
     20 H           3.4946    4.0951   -2.9464 H       1  UNL1        0.0000
     21 C           3.8984    3.2254   -1.0444 C.ar    1  UNL1        0.0000
     22 H           4.6867    3.9268   -0.8057 H       1  UNL1        0.0000
     23 C           3.5753    2.1896   -0.1487 C.ar    1  UNL1        0.0000
     24 C           5.7259    2.3119    3.8495 C.3     1  UNL1        0.0000
     25 H           4.9994    1.9254    4.5567 H       1  UNL1        0.0000
     26 H           6.3300    3.0461    4.3720 H       1  UNL1        0.0000
     27 H           6.3821    1.4976    3.5588 H       1  UNL1        0.0000
     28 C           6.3109    4.1786    1.5639 C.3     1  UNL1        0.0000
     29 H           7.1446    3.5555    1.2578 H       1  UNL1        0.0000
     30 H           6.6771    4.8665    2.3197 H       1  UNL1        0.0000
     31 H           6.0086    4.7657    0.7042 H       1  UNL1        0.0000
     32 C           3.1771    5.2511    3.0709 C.3     1  UNL1        0.0000
     33 C           3.3299    6.2183    1.8829 C.3     1  UNL1        0.0000
     34 H           4.3506    6.2046    1.5119 H       1  UNL1        0.0000
     35 H           3.0585    7.2336    2.1635 H       1  UNL1        0.0000
     36 H           2.6665    5.8764    1.0838 H       1  UNL1        0.0000
     37 C           1.7532    5.4243    3.6415 C.3     1  UNL1        0.0000
     38 H           1.0200    5.3062    2.8417 H       1  UNL1        0.0000
     39 H           1.6519    6.4162    4.0797 H       1  UNL1        0.0000
     40 H           1.5591    4.6802    4.4123 H       1  UNL1        0.0000
     41 C           4.1569    5.5268    4.2023 C.ar    1  UNL1        0.0000
     42 C           4.1384    4.6698    5.2995 C.ar    1  UNL1        0.0000
     43 H           3.4459    3.8396    5.3021 H       1  UNL1        0.0000
     44 C           5.0008    4.8529    6.3628 C.ar    1  UNL1        0.0000
     45 H           4.9705    4.1760    7.2043 H       1  UNL1        0.0000
     46 C           5.9066    5.9009    6.3487 C.ar    1  UNL1        0.0000
     47 H           6.5848    6.0467    7.1766 H       1  UNL1        0.0000
     48 C           5.9343    6.7590    5.2649 C.ar    1  UNL1        0.0000
     49 H           6.6365    7.5801    5.2443 H       1  UNL1        0.0000
     50 C           5.0642    6.5771    4.2015 C.ar    1  UNL1        0.0000
     51 H           5.1056    7.2679    3.3746 H       1  UNL1        0.0000
@<TRIPOS>BOND
     1    18    17    1
     2    20    19    1
     3    17    19   ar
     4    17    15   ar
     5    19    21   ar
     6    16    15    1
     7    15    14   ar
     8    21    22    1
     9    21    23   ar
    10    14    23   ar
    11    14    13    1
    12    23     3    1
    13    12    11    1
    14    13    11   ar
    15    13     4   ar
    16    31    28    1
    17    11     9   ar
    18    36    33    1
    19     3     4    1
    20     3     1    1
    21    29    28    1
    22    34    33    1
    23     4     5   ar
    24    28     1    1
    25    28    30    1
    26     9    10    1
    27     9     7   ar
    28    33    35    1
    29    33    32    1
    30     1     2    1
    31     1    24    1
    32     2    32    1
    33     5     7   ar
    34     5     6    1
    35     7     8    1
    36    38    37    1
    37    32    37    1
    38    32    41    1
    39    51    50    1
    40    27    24    1
    41    37    39    1
    42    37    40    1
    43    24    26    1
    44    24    25    1
    45    50    41   ar
    46    50    48   ar
    47    41    42   ar
    48    49    48    1
    49    48    46   ar
    50    42    43    1
    51    42    44   ar
    52    46    44   ar
    53    46    47    1
    54    44    45    1
