@<TRIPOS>MOLECULE
2,4,21
 75 78 0 0 0
SMALL
GASTEIGER

@<TRIPOS>ATOM
      1 SI          2.4391    1.8202    4.4483 Si      1  UNL1        0.0000
      2 N           1.8042    0.6473    3.3193 N.3     1  UNL1        0.0000
      3 C           0.8413    1.8463    5.4658 C.3     1  UNL1        0.0000
      4 C          -0.3845    2.4303    4.9944 C.ar    1  UNL1        0.0000
      5 C          -0.6112    3.4847    4.0926 C.ar    1  UNL1        0.0000
      6 H           0.2440    3.9737    3.6526 H       1  UNL1        0.0000
      7 C          -1.8966    3.9142    3.8254 C.ar    1  UNL1        0.0000
      8 C          -2.9791    3.2738    4.4608 C.ar    1  UNL1        0.0000
      9 H          -3.9864    3.6014    4.2530 H       1  UNL1        0.0000
     10 C          -2.7983    2.2428    5.3549 C.ar    1  UNL1        0.0000
     11 H          -3.6509    1.7863    5.8408 H       1  UNL1        0.0000
     12 C          -1.5061    1.7997    5.6335 C.ar    1  UNL1        0.0000
     13 C          -0.9833    0.8023    6.5240 C.ar    1  UNL1        0.0000
     14 C          -1.5867   -0.0803    7.4192 C.ar    1  UNL1        0.0000
     15 H          -2.6642   -0.1082    7.5181 H       1  UNL1        0.0000
     16 C          -0.7976   -0.9091    8.1843 C.ar    1  UNL1        0.0000
     17 H          -1.2804   -1.5879    8.8710 H       1  UNL1        0.0000
     18 C           0.6091   -0.8864    8.1050 C.ar    1  UNL1        0.0000
     19 C           1.2186   -0.0060    7.2332 C.ar    1  UNL1        0.0000
     20 H           2.2926    0.0661    7.1761 H       1  UNL1        0.0000
     21 C           0.4496    0.8465    6.4227 C.ar    1  UNL1        0.0000
     22 C           1.4014   -1.8458    8.9823 C.3     1  UNL1        0.0000
     23 C           1.0775   -1.5737   10.4579 C.3     1  UNL1        0.0000
     24 H           1.6556   -2.2371   11.0983 H       1  UNL1        0.0000
     25 H           0.0238   -1.7318   10.6692 H       1  UNL1        0.0000
     26 H           1.3248   -0.5450   10.7120 H       1  UNL1        0.0000
     27 C           2.9151   -1.7057    8.7961 C.3     1  UNL1        0.0000
     28 H           3.2048   -1.9193    7.7695 H       1  UNL1        0.0000
     29 H           3.4268   -2.4151    9.4439 H       1  UNL1        0.0000
     30 H           3.2516   -0.7060    9.0610 H       1  UNL1        0.0000
     31 C           1.0115   -3.2861    8.6189 C.3     1  UNL1        0.0000
     32 H           1.2243   -3.4784    7.5689 H       1  UNL1        0.0000
     33 H          -0.0462   -3.4657    8.7896 H       1  UNL1        0.0000
     34 H           1.5781   -3.9933    9.2216 H       1  UNL1        0.0000
     35 C          -2.1914    5.0512    2.8566 C.3     1  UNL1        0.0000
     36 C          -3.0360    6.1251    3.5574 C.3     1  UNL1        0.0000
     37 H          -3.9988    5.7358    3.8750 H       1  UNL1        0.0000
     38 H          -3.2161    6.9592    2.8819 H       1  UNL1        0.0000
     39 H          -2.5129    6.4982    4.4354 H       1  UNL1        0.0000
     40 C          -0.9203    5.7288    2.3357 C.3     1  UNL1        0.0000
     41 H          -0.3460    6.1547    3.1553 H       1  UNL1        0.0000
     42 H          -1.1922    6.5371    1.6590 H       1  UNL1        0.0000
     43 H          -0.2911    5.0309    1.7894 H       1  UNL1        0.0000
     44 C          -2.9661    4.4809    1.6596 C.3     1  UNL1        0.0000
     45 H          -2.3855    3.6984    1.1737 H       1  UNL1        0.0000
     46 H          -3.1710    5.2641    0.9322 H       1  UNL1        0.0000
     47 H          -3.9137    4.0514    1.9745 H       1  UNL1        0.0000
     48 C           3.9759    1.2452    5.4535 C.3     1  UNL1        0.0000
     49 H           4.0085    1.7288    6.4244 H       1  UNL1        0.0000
     50 H           4.8951    1.5020    4.9372 H       1  UNL1        0.0000
     51 H           3.9800    0.1709    5.6113 H       1  UNL1        0.0000
     52 C           2.9508    3.5010    3.6696 C.3     1  UNL1        0.0000
     53 H           3.9933    3.4745    3.3688 H       1  UNL1        0.0000
     54 H           2.8379    4.3179    4.3748 H       1  UNL1        0.0000
     55 H           2.3690    3.7339    2.7838 H       1  UNL1        0.0000
     56 C           2.4238    0.2769    2.0631 C.3     1  UNL1        0.0000
     57 C           3.9045   -0.0647    2.2903 C.3     1  UNL1        0.0000
     58 H           4.4684    0.8301    2.5358 H       1  UNL1        0.0000
     59 H           4.3380   -0.5366    1.4123 H       1  UNL1        0.0000
     60 H           3.9712   -0.7586    3.1254 H       1  UNL1        0.0000
     61 C           1.7367   -0.9769    1.4807 C.3     1  UNL1        0.0000
     62 H           1.8840   -1.8203    2.1557 H       1  UNL1        0.0000
     63 H           2.1693   -1.2170    0.5104 H       1  UNL1        0.0000
     64 H           0.6670   -0.7957    1.3558 H       1  UNL1        0.0000
     65 C           2.2357    1.4010    1.0468 C.ar    1  UNL1        0.0000
     66 C           0.9941    2.0286    0.9867 C.ar    1  UNL1        0.0000
     67 H           0.2225    1.7294    1.6956 H       1  UNL1        0.0000
     68 C           0.7458    3.0203    0.0562 C.ar    1  UNL1        0.0000
     69 H          -0.2290    3.4836    0.0066 H       1  UNL1        0.0000
     70 C           1.7420    3.4193   -0.8202 C.ar    1  UNL1        0.0000
     71 H           1.5512    4.1987   -1.5428 H       1  UNL1        0.0000
     72 C           2.9815    2.8101   -0.7607 C.ar    1  UNL1        0.0000
     73 H           3.7661    3.1150   -1.4381 H       1  UNL1        0.0000
     74 C           3.2248    1.8027    0.1593 C.ar    1  UNL1        0.0000
     75 H           4.1973    1.3372    0.1726 H       1  UNL1        0.0000
@<TRIPOS>BOND
     1    71    70    1
     2    73    72    1
     3    70    72   ar
     4    70    68   ar
     5    72    74   ar
     6    69    68    1
     7    68    66   ar
     8    74    75    1
     9    74    65   ar
    10    63    61    1
    11    46    44    1
    12    66    65   ar
    13    66    67    1
    14    65    56    1
    15    45    44    1
    16    64    61    1
    17    59    57    1
    18    61    56    1
    19    61    62    1
    20    42    40    1
    21    44    47    1
    22    44    35    1
    23    43    40    1
    24    56    57    1
    25    56     2    1
    26    57    58    1
    27    57    60    1
    28    40    35    1
    29    40    41    1
    30    55    52    1
    31    35    36    1
    32    35     7    1
    33    38    36    1
    34     2     1    1
    35    53    52    1
    36    36    37    1
    37    36    39    1
    38     6     5    1
    39    52    54    1
    40    52     1    1
    41     7     5   ar
    42     7     8   ar
    43     5     4   ar
    44     9     8    1
    45     1    48    1
    46     1     3    1
    47     8    10   ar
    48    50    48    1
    49     4     3    1
    50     4    12   ar
    51    10    12   ar
    52    10    11    1
    53    48    51    1
    54    48    49    1
    55     3    21    1
    56    12    13    1
    57    21    13   ar
    58    21    19   ar
    59    13    14   ar
    60    20    19    1
    61    19    18   ar
    62    14    15    1
    63    14    16   ar
    64    32    31    1
    65    28    27    1
    66    18    16   ar
    67    18    22    1
    68    16    17    1
    69    31    33    1
    70    31    22    1
    71    31    34    1
    72    27    22    1
    73    27    30    1
    74    27    29    1
    75    22    23    1
    76    23    25    1
    77    23    26    1
    78    23    24    1
