@<TRIPOS>MOLECULE
2,10,13
 81 85 0 0 0
SMALL
GASTEIGER

@<TRIPOS>ATOM
      1 SI          5.6284    7.4607    4.4013 Si      1  UNL1        0.0000
      2 N           5.0048    6.2397    3.3147 N.3     1  UNL1        0.0000
      3 C           1.5282    5.6397    7.3133 C.ar    1  UNL1        0.0000
      4 H           0.4501    5.6383    7.4103 H       1  UNL1        0.0000
      5 C           2.2948    4.7855    8.0739 C.ar    1  UNL1        0.0000
      6 H           1.7937    4.1157    8.7564 H       1  UNL1        0.0000
      7 C           3.7014    4.7688    7.9930 C.ar    1  UNL1        0.0000
      8 C           4.3352    5.6430    7.1318 C.ar    1  UNL1        0.0000
      9 H           5.4112    5.6920    7.0808 H       1  UNL1        0.0000
     10 C           3.5896    6.5263    6.3315 C.ar    1  UNL1        0.0000
     11 C           2.1551    6.5112    6.4235 C.ar    1  UNL1        0.0000
     12 C           1.6616    7.5275    5.5377 C.ar    1  UNL1        0.0000
     13 C           2.8000    8.1451    4.9162 C.ar    1  UNL1        0.0000
     14 C           4.0093    7.5259    5.3856 C.3     1  UNL1        0.0000
     15 C           2.6006    9.2387    4.0556 C.ar    1  UNL1        0.0000
     16 H           3.4674    9.7209    3.6330 H       1  UNL1        0.0000
     17 C           1.3281    9.7174    3.8119 C.ar    1  UNL1        0.0000
     18 C           0.2277    9.0768    4.4155 C.ar    1  UNL1        0.0000
     19 H          -0.7701    9.4414    4.2240 H       1  UNL1        0.0000
     20 C           0.3805    8.0069    5.2671 C.ar    1  UNL1        0.0000
     21 H          -0.4838    7.5545    5.7360 H       1  UNL1        0.0000
     22 C           1.0646   10.9331    2.9336 C.3     1  UNL1        0.0000
     23 C           0.1814   10.5183    1.7483 C.3     1  UNL1        0.0000
     24 H          -0.7817   10.1440    2.0846 H       1  UNL1        0.0000
     25 H           0.6658    9.7327    1.1718 H       1  UNL1        0.0000
     26 H           0.0058   11.3688    1.0924 H       1  UNL1        0.0000
     27 C           2.3503   11.5590    2.3846 C.3     1  UNL1        0.0000
     28 H           2.0982   12.4174    1.7644 H       1  UNL1        0.0000
     29 H           2.9080   10.8543    1.7730 H       1  UNL1        0.0000
     30 H           2.9884   11.9060    3.1941 H       1  UNL1        0.0000
     31 C           0.3417   12.0047    3.7636 C.3     1  UNL1        0.0000
     32 H          -0.6193   11.6496    4.1248 H       1  UNL1        0.0000
     33 H           0.1701   12.8939    3.1601 H       1  UNL1        0.0000
     34 H           0.9469   12.2821    4.6241 H       1  UNL1        0.0000
     35 C           4.4675    3.7763    8.8567 C.3     1  UNL1        0.0000
     36 C           4.1687    4.0519   10.3368 C.3     1  UNL1        0.0000
     37 H           4.4620    5.0674   10.5952 H       1  UNL1        0.0000
     38 H           4.7232    3.3601   10.9679 H       1  UNL1        0.0000
     39 H           3.1107    3.9380   10.5560 H       1  UNL1        0.0000
     40 C           4.0221    2.3527    8.4909 C.3     1  UNL1        0.0000
     41 H           2.9627    2.2065    8.6820 H       1  UNL1        0.0000
     42 H           4.5769    1.6222    9.0765 H       1  UNL1        0.0000
     43 H           4.2069    2.1613    7.4355 H       1  UNL1        0.0000
     44 C           5.9833    3.8623    8.6543 C.3     1  UNL1        0.0000
     45 H           6.2529    3.6507    7.6215 H       1  UNL1        0.0000
     46 H           6.4753    3.1261    9.2873 H       1  UNL1        0.0000
     47 H           6.3605    4.8449    8.9275 H       1  UNL1        0.0000
     48 C           5.7740    5.5725    2.2779 C.3     1  UNL1        0.0000
     49 C           6.5031    6.5911    1.4017 C.ar    1  UNL1        0.0000
     50 C           7.8575    6.5075    1.1934 C.ar    1  UNL1        0.0000
     51 H           8.4410    5.7406    1.6748 H       1  UNL1        0.0000
     52 C           8.5387    7.3940    0.3468 C.ar    1  UNL1        0.0000
     53 H           9.6066    7.2860    0.2237 H       1  UNL1        0.0000
     54 C           7.8571    8.3645   -0.3245 C.ar    1  UNL1        0.0000
     55 H           8.3661    9.0394   -0.9974 H       1  UNL1        0.0000
     56 C           6.4651    8.4987   -0.1477 C.ar    1  UNL1        0.0000
     57 C           5.7760    7.6269    0.7411 C.ar    1  UNL1        0.0000
     58 C           4.3893    7.8442    0.9193 C.ar    1  UNL1        0.0000
     59 H           3.8481    7.2596    1.6557 H       1  UNL1        0.0000
     60 C           3.7237    8.8066    0.2114 C.ar    1  UNL1        0.0000
     61 H           2.6593    8.9296    0.3493 H       1  UNL1        0.0000
     62 C           4.4030    9.6389   -0.6893 C.ar    1  UNL1        0.0000
     63 H           3.8603   10.3956   -1.2366 H       1  UNL1        0.0000
     64 C           5.7511    9.4953   -0.8468 C.ar    1  UNL1        0.0000
     65 H           6.2987   10.1436   -1.5162 H       1  UNL1        0.0000
     66 C           4.8734    4.7208    1.3533 C.3     1  UNL1        0.0000
     67 H           4.2972    4.0165    1.9579 H       1  UNL1        0.0000
     68 H           5.5023    4.1651    0.6590 H       1  UNL1        0.0000
     69 H           4.1931    5.3364    0.7701 H       1  UNL1        0.0000
     70 C           6.7336    4.5820    2.9689 C.3     1  UNL1        0.0000
     71 H           7.4732    5.1112    3.5604 H       1  UNL1        0.0000
     72 H           7.2333    3.9396    2.2478 H       1  UNL1        0.0000
     73 H           6.1377    3.9600    3.6378 H       1  UNL1        0.0000
     74 C           7.1624    6.9770    5.4596 C.3     1  UNL1        0.0000
     75 H           7.1629    5.9339    5.7592 H       1  UNL1        0.0000
     76 H           7.2115    7.5820    6.3595 H       1  UNL1        0.0000
     77 H           8.0747    7.1602    4.9001 H       1  UNL1        0.0000
     78 C           6.1654    9.1240    3.6059 C.3     1  UNL1        0.0000
     79 H           7.1560    9.0284    3.1726 H       1  UNL1        0.0000
     80 H           6.2090    9.9102    4.3528 H       1  UNL1        0.0000
     81 H           5.5015    9.4487    2.8129 H       1  UNL1        0.0000
@<TRIPOS>BOND
     1    65    64    1
     2    63    62    1
     3    55    54    1
     4    64    62   ar
     5    64    56   ar
     6    62    60   ar
     7    54    56   ar
     8    54    52   ar
     9    56    57   ar
    10    60    61    1
    11    60    58   ar
    12    53    52    1
    13    52    50   ar
    14    68    66    1
    15    57    58   ar
    16    57    49   ar
    17    69    66    1
    18    58    59    1
    19    26    23    1
    20    25    23    1
    21    50    49   ar
    22    50    51    1
    23    66    67    1
    24    66    48    1
    25    49    48    1
    26    23    24    1
    27    23    22    1
    28    28    27    1
    29    29    27    1
    30    72    70    1
    31    48    70    1
    32    48     2    1
    33    27    22    1
    34    27    30    1
    35    81    78    1
    36    22    31    1
    37    22    17    1
    38    70    71    1
    39    70    73    1
    40    33    31    1
    41    79    78    1
    42     2     1    1
    43    78    80    1
    44    78     1    1
    45    16    15    1
    46    31    32    1
    47    31    34    1
    48    17    15   ar
    49    17    18   ar
    50    15    13   ar
    51    19    18    1
    52     1    14    1
    53     1    74    1
    54    18    20   ar
    55    77    74    1
    56    13    14    1
    57    13    12   ar
    58    20    12   ar
    59    20    21    1
    60    14    10    1
    61    74    75    1
    62    74    76    1
    63    12    11    1
    64    10    11   ar
    65    10     8   ar
    66    11     3   ar
    67     9     8    1
    68     8     7   ar
    69     3     4    1
    70     3     5   ar
    71    43    40    1
    72    45    44    1
    73     7     5   ar
    74     7    35    1
    75     5     6    1
    76    40    41    1
    77    40    35    1
    78    40    42    1
    79    44    35    1
    80    44    47    1
    81    44    46    1
    82    35    36    1
    83    36    39    1
    84    36    37    1
    85    36    38    1
