@<TRIPOS>MOLECULE
2,5,8,9
 32 31 0 0 0
SMALL
GASTEIGER

@<TRIPOS>ATOM
      1 SI         15.0210    0.9883    4.6752 Si      1  UNL1        0.0000
      2 N          10.0503    1.6571    3.4312 N.3     1  UNL1        0.0000
      3 H          10.2836    2.6069    3.7353 H       1  UNL1        0.0000
      4 H           9.4822    1.7751    2.5898 H       1  UNL1        0.0000
      5 C          12.0623   -0.8018    4.5416 C.3     1  UNL1        0.0000
      6 H          11.2945   -1.4399    4.9670 H       1  UNL1        0.0000
      7 H          12.9838   -1.3362    4.3345 H       1  UNL1        0.0000
      8 C          12.1428    0.4988    5.0616 C.3     1  UNL1        0.0000
      9 C          13.1239    1.4125    4.5704 C.3     1  UNL1        0.0000
     10 C          12.9246    2.8630    4.9738 C.3     1  UNL1        0.0000
     11 H          11.8886    3.1938    4.9020 H       1  UNL1        0.0000
     12 H          13.5365    3.5150    4.3557 H       1  UNL1        0.0000
     13 H          13.2309    3.0059    6.0096 H       1  UNL1        0.0000
     14 C          15.4636   -0.8648    4.7856 C.3     1  UNL1        0.0000
     15 H          16.5268   -0.9422    4.9927 H       1  UNL1        0.0000
     16 H          15.2834   -1.4189    3.8714 H       1  UNL1        0.0000
     17 H          14.9486   -1.3657    5.6002 H       1  UNL1        0.0000
     18 C          15.6190    1.7507    6.3184 C.3     1  UNL1        0.0000
     19 H          15.0202    1.4305    7.1661 H       1  UNL1        0.0000
     20 H          15.6137    2.8350    6.2951 H       1  UNL1        0.0000
     21 H          16.6406    1.4416    6.5138 H       1  UNL1        0.0000
     22 C          15.8688    1.8458    3.1978 C.3     1  UNL1        0.0000
     23 H          16.8234    1.3778    2.9830 H       1  UNL1        0.0000
     24 H          16.0683    2.8904    3.4146 H       1  UNL1        0.0000
     25 H          15.2711    1.8076    2.2907 H       1  UNL1        0.0000
     26 C           9.1811    1.0729    4.4778 C.3     1  UNL1        0.0000
     27 H           8.2254    1.6101    4.5209 H       1  UNL1        0.0000
     28 H           8.9641    0.0328    4.2085 H       1  UNL1        0.0000
     29 C           9.8311    1.1357    5.8304 C.2     1  UNL1        0.0000
     30 H           9.1821    1.3971    6.6519 H       1  UNL1        0.0000
     31 C          11.1227    0.9300    6.0401 C.2     1  UNL1        0.0000
     32 H          11.5292    1.0476    7.0371 H       1  UNL1        0.0000
@<TRIPOS>BOND
     1    25    22    1
     2     4     2    1
     3    23    22    1
     4    22    24    1
     5    22     1    1
     6     2     3    1
     7     2    26    1
     8    16    14    1
     9    28    26    1
    10     7     5    1
    11    12    10    1
    12    26    27    1
    13    26    29    1
    14     5     6    1
    15     5     8    1
    16     9     1    1
    17     9    10    1
    18     9     8    1
    19     1    14    1
    20     1    18    1
    21    14    15    1
    22    14    17    1
    23    11    10    1
    24    10    13    1
    25     8    31    1
    26    29    31    2
    27    29    30    1
    28    31    32    1
    29    20    18    1
    30    18    21    1
    31    18    19    1
