@<TRIPOS>MOLECULE
2,3,4,5
 47 47 0 0 0
SMALL
GASTEIGER

@<TRIPOS>ATOM
      1 SI          1.0443    6.8208    9.0563 Si      1  UNL1        0.0000
      2 N          -0.4504    7.0003    8.2355 N.3     1  UNL1        0.0000
      3 C           1.8518    5.7312    6.4929 C.2     1  UNL1        0.0000
      4 C           2.0963    6.8139    5.5500 C.3     1  UNL1        0.0000
      5 C           1.6871    6.3099    4.2559 C.2     1  UNL1        0.0000
      6 C           1.1838    5.0194    4.4226 C.2     1  UNL1        0.0000
      7 C           1.2715    4.6700    5.7988 C.2     1  UNL1        0.0000
      8 C           2.2119    5.7502    7.9430 C.3     1  UNL1        0.0000
      9 C           3.2128    7.8279    5.7241 C.3     1  UNL1        0.0000
     10 C           1.9385    6.9814    2.9354 C.3     1  UNL1        0.0000
     11 C           0.6932    4.1602    3.2958 C.3     1  UNL1        0.0000
     12 C           0.9044    3.3560    6.4242 C.3     1  UNL1        0.0000
     13 C           1.1258    5.9894   10.7830 C.3     1  UNL1        0.0000
     14 C           1.9402    8.5253    9.2816 C.3     1  UNL1        0.0000
     15 C          -1.6826    7.3517    8.9346 C.3     1  UNL1        0.0000
     16 C          -2.7839    7.7237    7.9217 C.3     1  UNL1        0.0000
     17 C          -1.4916    8.5529    9.8753 C.3     1  UNL1        0.0000
     18 C          -2.1901    6.1493    9.7491 C.3     1  UNL1        0.0000
     19 H           3.2292    6.1266    8.0611 H       1  UNL1        0.0000
     20 H           2.2175    4.7273    8.3142 H       1  UNL1        0.0000
     21 H           3.2810    8.1730    6.7553 H       1  UNL1        0.0000
     22 H           3.0860    8.6957    5.0741 H       1  UNL1        0.0000
     23 H           4.1678    7.3611    5.4638 H       1  UNL1        0.0000
     24 H           1.1168    6.8039    2.2406 H       1  UNL1        0.0000
     25 H           2.8476    6.5851    2.4756 H       1  UNL1        0.0000
     26 H           2.0685    8.0569    3.0522 H       1  UNL1        0.0000
     27 H           1.4773    4.0342    2.5479 H       1  UNL1        0.0000
     28 H          -0.1663    4.6130    2.7946 H       1  UNL1        0.0000
     29 H           0.4065    3.1709    3.6453 H       1  UNL1        0.0000
     30 H           0.3569    2.7195    5.7326 H       1  UNL1        0.0000
     31 H           0.2923    3.5058    7.3143 H       1  UNL1        0.0000
     32 H           1.8040    2.8160    6.7269 H       1  UNL1        0.0000
     33 H           2.1572    5.9076   11.1121 H       1  UNL1        0.0000
     34 H           0.7097    4.9871   10.7685 H       1  UNL1        0.0000
     35 H           0.5926    6.5606   11.5360 H       1  UNL1        0.0000
     36 H           3.0106    8.4065    9.4219 H       1  UNL1        0.0000
     37 H           1.5636    9.0645   10.1455 H       1  UNL1        0.0000
     38 H           1.7855    9.1625    8.4085 H       1  UNL1        0.0000
     39 H          -3.7035    7.9791    8.4474 H       1  UNL1        0.0000
     40 H          -2.9951    6.8832    7.2624 H       1  UNL1        0.0000
     41 H          -2.4830    8.5897    7.3247 H       1  UNL1        0.0000
     42 H          -0.8244    8.2876   10.6883 H       1  UNL1        0.0000
     43 H          -2.4437    8.8710   10.2952 H       1  UNL1        0.0000
     44 H          -1.0495    9.3830    9.3272 H       1  UNL1        0.0000
     45 H          -3.1553    6.3701   10.1997 H       1  UNL1        0.0000
     46 H          -1.4836    5.9072   10.5336 H       1  UNL1        0.0000
     47 H          -2.2927    5.2809    9.1019 H       1  UNL1        0.0000
@<TRIPOS>BOND
     1    24    10    1
     2    25    10    1
     3    27    11    1
     4    28    11    1
     5    10    26    1
     6    10     5    1
     7    11    29    1
     8    11     6    1
     9     5     6    2
    10     5     4    1
    11     6     7    1
    12    22     9    1
    13    23     9    1
    14     4     9    1
    15     4     3    1
    16     9    21    1
    17    30    12    1
    18     7    12    1
    19     7     3    2
    20    12    32    1
    21    12    31    1
    22     3     8    1
    23    40    16    1
    24    41    16    1
    25    16    39    1
    26    16    15    1
    27     8    19    1
    28     8    20    1
    29     8     1    1
    30     2    15    1
    31     2     1    1
    32    38    14    1
    33    15    18    1
    34    15    17    1
    35     1    14    1
    36     1    13    1
    37    47    18    1
    38    14    36    1
    39    14    37    1
    40    44    17    1
    41    18    45    1
    42    18    46    1
    43    17    43    1
    44    17    42    1
    45    34    13    1
    46    13    33    1
    47    13    35    1
