@<TRIPOS>MOLECULE
1,18,19,22
 36 38 0 0 0
SMALL
GASTEIGER

@<TRIPOS>ATOM
      1 N           0.2987    7.2395    4.3833 N.3     1  UNL1       -0.3083
      2 C          -2.1210   10.3708    3.0673 C.ar    1  UNL1       -0.0571
      3 H          -2.6890    9.8394    3.8225 H       1  UNL1        0.0621
      4 C          -2.7740   10.9408    2.0004 C.ar    1  UNL1       -0.0614
      5 H          -3.8453   10.8280    1.9098 H       1  UNL1        0.0618
      6 C          -2.0860   11.6792    1.0307 C.ar    1  UNL1       -0.0612
      7 H          -2.6359   12.1107    0.2077 H       1  UNL1        0.0618
      8 C          -0.7270   11.8806    1.1336 C.ar    1  UNL1       -0.0537
      9 H          -0.2042   12.4834    0.4038 H       1  UNL1        0.0624
     10 C           2.4028   12.1995    2.1477 C.ar    1  UNL1       -0.0537
     11 H           2.2982   12.7564    1.2267 H       1  UNL1        0.0624
     12 C           3.5824   12.2374    2.8596 C.ar    1  UNL1       -0.0612
     13 H           4.4169   12.8149    2.4902 H       1  UNL1        0.0618
     14 C           3.7075   11.5573    4.0772 C.ar    1  UNL1       -0.0614
     15 H           4.6353   11.6344    4.6263 H       1  UNL1        0.0618
     16 C           2.6733   10.8142    4.5951 C.ar    1  UNL1       -0.0571
     17 H           2.7769   10.3395    5.5634 H       1  UNL1        0.0621
     18 C           0.2054   10.1139    4.1972 C.3     1  UNL1        0.0366
     19 C          -0.7253   10.5242    3.1897 C.ar    1  UNL1       -0.0280
     20 C          -0.0306   11.3236    2.2064 C.ar    1  UNL1       -0.0135
     21 C           1.3297   11.4557    2.6403 C.ar    1  UNL1       -0.0135
     22 C           1.4611   10.7256    3.8809 C.ar    1  UNL1       -0.0280
     23 C          -0.1297    9.4441    5.5038 C.3     1  UNL1       -0.0253
     24 H          -1.2143    9.3872    5.6209 H       1  UNL1        0.0290
     25 H           0.2538   10.0371    6.3416 H       1  UNL1        0.0290
     26 C           0.4894    8.0397    5.6076 C.3     1  UNL1       -0.0005
     27 H           1.5676    8.1411    5.7670 H       1  UNL1        0.0427
     28 H           0.0673    7.5083    6.4769 H       1  UNL1        0.0427
     29 C           1.0815    6.0070    4.5142 C.3     1  UNL1       -0.0130
     30 H           2.1441    6.2361    4.5687 H       1  UNL1        0.0391
     31 H           0.9095    5.3715    3.6472 H       1  UNL1        0.0391
     32 H           0.7925    5.4480    5.4154 H       1  UNL1        0.0391
     33 C          -1.1159    6.8590    4.2631 C.3     1  UNL1       -0.0130
     34 H          -1.2455    6.2221    3.3885 H       1  UNL1        0.0391
     35 H          -1.7369    7.7446    4.1418 H       1  UNL1        0.0391
     36 H          -1.4504    6.3094    5.1550 H       1  UNL1        0.0391
@<TRIPOS>BOND
     1     7     6    1
     2     9     8    1
     3     6     8   ar
     4     6     4   ar
     5     8    20   ar
     6    11    10    1
     7     5     4    1
     8     4     2   ar
     9    10    21   ar
    10    10    12   ar
    11    20    21    1
    12    20    19   ar
    13    13    12    1
    14    21    22   ar
    15    12    14   ar
    16     2    19   ar
    17     2     3    1
    18    19    18    1
    19    34    33    1
    20    31    29    1
    21    22    18    1
    22    22    16   ar
    23    14    16   ar
    24    14    15    1
    25    35    33    1
    26    18    23    1
    27    33     1    1
    28    33    36    1
    29     1    29    1
    30     1    26    1
    31    29    30    1
    32    29    32    1
    33    16    17    1
    34    23    26    1
    35    23    24    1
    36    23    25    1
    37    26    27    1
    38    26    28    1
