@<TRIPOS>MOLECULE
2,12,15
 78 84 0 0 0
SMALL
GASTEIGER

@<TRIPOS>ATOM
      1 SI          1.7662   -0.2874   16.8897 Si      1  UNL1        0.0000
      2 N           1.5143    1.2465   16.1042 N.3     1  UNL1        0.0000
      3 C          -1.4978    0.3820   17.7749 C.ar    1  UNL1        0.0000
      4 C          -2.7553    0.9062   18.0296 C.ar    1  UNL1        0.0000
      5 C          -2.9503    1.7738   19.1287 C.ar    1  UNL1        0.0000
      6 C          -1.8605    2.1480   19.9014 C.ar    1  UNL1        0.0000
      7 C           1.0879    2.6251   21.3562 C.ar    1  UNL1        0.0000
      8 C           2.4029    2.5780   21.7689 C.ar    1  UNL1        0.0000
      9 C           3.3290    1.7612   21.1099 C.ar    1  UNL1        0.0000
     10 C           2.9676    0.9892   20.0289 C.ar    1  UNL1        0.0000
     11 C           0.9867    0.3173   18.5055 C.3     1  UNL1        0.0000
     12 C          -0.3917    0.7237   18.5643 C.ar    1  UNL1        0.0000
     13 C          -0.5859    1.6624   19.6320 C.ar    1  UNL1        0.0000
     14 C           0.6924    1.8590   20.2604 C.ar    1  UNL1        0.0000
     15 C           1.6413    1.0246   19.5673 C.ar    1  UNL1        0.0000
     16 C          -3.8879    0.4906   17.1040 C.3     1  UNL1        0.0000
     17 C          -5.1091    1.3975   17.2921 C.3     1  UNL1        0.0000
     18 C          -5.4340    1.6194   18.7581 C.3     1  UNL1        0.0000
     19 C          -4.3070    2.3531   19.4933 C.3     1  UNL1        0.0000
     20 C          -3.4575    0.6057   15.6325 C.3     1  UNL1        0.0000
     21 C          -4.2579   -0.9701   17.3992 C.3     1  UNL1        0.0000
     22 C          -4.3200    3.8455   19.1292 C.3     1  UNL1        0.0000
     23 C          -4.5761    2.2083   20.9995 C.3     1  UNL1        0.0000
     24 C           1.5413    1.5701   14.6994 C.3     1  UNL1        0.0000
     25 C           0.1010    1.5782   14.1515 C.3     1  UNL1        0.0000
     26 C           2.1521    2.9707   14.4992 C.3     1  UNL1        0.0000
     27 C           2.3691    0.5689   13.8814 C.3     1  UNL1        0.0000
     28 C           0.0956    1.9656   12.6741 C.3     1  UNL1        0.0000
     29 C           0.7006    3.3588   12.5072 C.3     1  UNL1        0.0000
     30 C           2.1406    3.3525   13.0190 C.3     1  UNL1        0.0000
     31 C           2.9643    2.3412   12.2235 C.3     1  UNL1        0.0000
     32 C           2.3581    0.9509   12.4016 C.3     1  UNL1        0.0000
     33 C           0.9211    0.9519   11.8819 C.3     1  UNL1        0.0000
     34 C           0.8676   -1.8297   16.1637 C.3     1  UNL1        0.0000
     35 C           3.6205   -0.7691   17.0131 C.3     1  UNL1        0.0000
     36 H          -1.3615   -0.3344   16.9769 H       1  UNL1        0.0000
     37 H          -1.9929    2.8258   20.7329 H       1  UNL1        0.0000
     38 H           0.3682    3.2397   21.8815 H       1  UNL1        0.0000
     39 H           2.7242    3.1650   22.6171 H       1  UNL1        0.0000
     40 H           4.3484    1.7331   21.4694 H       1  UNL1        0.0000
     41 H           3.6909    0.3400   19.5551 H       1  UNL1        0.0000
     42 H          -4.9147    2.3595   16.8137 H       1  UNL1        0.0000
     43 H          -5.9690    0.9499   16.7878 H       1  UNL1        0.0000
     44 H          -5.6057    0.6558   19.2411 H       1  UNL1        0.0000
     45 H          -6.3563    2.1987   18.8477 H       1  UNL1        0.0000
     46 H          -3.0041    1.5769   15.4415 H       1  UNL1        0.0000
     47 H          -4.3280    0.4978   14.9877 H       1  UNL1        0.0000
     48 H          -2.7436   -0.1650   15.3571 H       1  UNL1        0.0000
     49 H          -3.3998   -1.6186   17.2404 H       1  UNL1        0.0000
     50 H          -5.0643   -1.2964   16.7449 H       1  UNL1        0.0000
     51 H          -4.5778   -1.0893   18.4310 H       1  UNL1        0.0000
     52 H          -5.2759    4.2925   19.3959 H       1  UNL1        0.0000
     53 H          -4.1557    3.9885   18.0639 H       1  UNL1        0.0000
     54 H          -3.5325    4.3741   19.6613 H       1  UNL1        0.0000
     55 H          -4.3973    1.1842   21.3204 H       1  UNL1        0.0000
     56 H          -5.6134    2.4613   21.2121 H       1  UNL1        0.0000
     57 H          -3.9465    2.8671   21.5905 H       1  UNL1        0.0000
     58 H          -0.4921    2.2848   14.7449 H       1  UNL1        0.0000
     59 H          -0.3291    0.5820   14.2799 H       1  UNL1        0.0000
     60 H           3.1770    2.9641   14.8834 H       1  UNL1        0.0000
     61 H           1.5689    3.6955   15.0823 H       1  UNL1        0.0000
     62 H           1.9526   -0.4305   14.0087 H       1  UNL1        0.0000
     63 H           3.3916    0.5618   14.2633 H       1  UNL1        0.0000
     64 H          -0.9353    1.9675   12.3015 H       1  UNL1        0.0000
     65 H           0.1113    4.0880   13.0680 H       1  UNL1        0.0000
     66 H           0.6813    3.6485   11.4543 H       1  UNL1        0.0000
     67 H           2.5747    4.3517   12.8989 H       1  UNL1        0.0000
     68 H           3.9979    2.3446   12.5760 H       1  UNL1        0.0000
     69 H           2.9694    2.6129   11.1656 H       1  UNL1        0.0000
     70 H           2.9490    0.2198   11.8377 H       1  UNL1        0.0000
     71 H           0.9102    1.2107   10.8208 H       1  UNL1        0.0000
     72 H           0.4869   -0.0446   11.9878 H       1  UNL1        0.0000
     73 H           1.5578   -2.4438   15.5943 H       1  UNL1        0.0000
     74 H           0.0532   -1.5556   15.5002 H       1  UNL1        0.0000
     75 H           0.4550   -2.4519   16.9515 H       1  UNL1        0.0000
     76 H           4.2436    0.1006   17.2024 H       1  UNL1        0.0000
     77 H           3.9611   -1.2244   16.0888 H       1  UNL1        0.0000
     78 H           3.7893   -1.4886   17.8074 H       1  UNL1        0.0000
@<TRIPOS>BOND
     1    71    33    1
     2    69    31    1
     3    66    29    1
     4    70    32    1
     5    33    72    1
     6    33    32    1
     7    33    28    1
     8    31    32    1
     9    31    68    1
    10    31    30    1
    11    64    28    1
    12    32    27    1
    13    29    28    1
    14    29    30    1
    15    29    65    1
    16    28    25    1
    17    67    30    1
    18    30    26    1
    19    27    62    1
    20    27    63    1
    21    27    24    1
    22    25    59    1
    23    25    24    1
    24    25    58    1
    25    26    24    1
    26    26    60    1
    27    26    61    1
    28    24     2    1
    29    47    20    1
    30    48    20    1
    31    46    20    1
    32    74    34    1
    33    73    34    1
    34    20    16    1
    35    77    35    1
    36     2     1    1
    37    34     1    1
    38    34    75    1
    39    50    21    1
    40    43    17    1
    41    42    17    1
    42     1    35    1
    43     1    11    1
    44    36     3    1
    45    35    76    1
    46    35    78    1
    47    16    17    1
    48    16    21    1
    49    16     4    1
    50    49    21    1
    51    17    18    1
    52    21    51    1
    53     3     4   ar
    54     3    12   ar
    55     4     5   ar
    56    53    22    1
    57    11    12    1
    58    11    15    1
    59    12    13   ar
    60    18    45    1
    61    18    44    1
    62    18    19    1
    63     5    19    1
    64     5     6   ar
    65    22    52    1
    66    22    19    1
    67    22    54    1
    68    19    23    1
    69    41    10    1
    70    15    10   ar
    71    15    14   ar
    72    13     6   ar
    73    13    14    1
    74     6    37    1
    75    10     9   ar
    76    14     7   ar
    77    23    56    1
    78    23    55    1
    79    23    57    1
    80     9    40    1
    81     9     8   ar
    82     7     8   ar
    83     7    38    1
    84     8    39    1
