@<TRIPOS>MOLECULE
2,11,12,15
 56 61 0 0 0
SMALL
GASTEIGER

@<TRIPOS>ATOM
      1 SI          5.4514    2.6500   -0.3525 Si      1  UNL1        0.0000
      2 N           5.0852    3.3572    1.1972 N.3     1  UNL1        0.0000
      3 C           5.7194   -0.1581    1.6488 C.ar    1  UNL1        0.0000
      4 C           5.8623   -1.0916    2.6512 C.ar    1  UNL1        0.0000
      5 C           7.0533   -1.2087    3.3794 C.ar    1  UNL1        0.0000
      6 C           8.1227   -0.3782    3.1201 C.ar    1  UNL1        0.0000
      7 C          10.2474    1.8676    1.9333 C.ar    1  UNL1        0.0000
      8 C          10.9149    2.8321    1.2095 C.ar    1  UNL1        0.0000
      9 C          10.2888    3.4840    0.1398 C.ar    1  UNL1        0.0000
     10 C           8.9916    3.1967   -0.2189 C.ar    1  UNL1        0.0000
     11 C           6.9451    1.7139    0.3414 C.3     1  UNL1        0.0000
     12 C           6.7962    0.6956    1.3438 C.ar    1  UNL1        0.0000
     13 C           8.0068    0.5862    2.1180 C.ar    1  UNL1        0.0000
     14 C           8.9289    1.5574    1.5973 C.ar    1  UNL1        0.0000
     15 C           8.2718    2.2318    0.5069 C.ar    1  UNL1        0.0000
     16 C           3.8652    3.9831    1.6447 C.3     1  UNL1        0.0000
     17 C           3.0109    2.9517    2.4074 C.3     1  UNL1        0.0000
     18 C           3.0330    4.5408    0.4814 C.3     1  UNL1        0.0000
     19 C           4.1980    5.1490    2.5953 C.3     1  UNL1        0.0000
     20 C           1.7339    3.6059    2.9322 C.3     1  UNL1        0.0000
     21 C           0.9211    4.1482    1.7568 C.3     1  UNL1        0.0000
     22 C           1.7509    5.1876    1.0047 C.3     1  UNL1        0.0000
     23 C           2.1004    6.3382    1.9456 C.3     1  UNL1        0.0000
     24 C           2.9149    5.7949    3.1181 C.3     1  UNL1        0.0000
     25 C           2.0944    4.7520    3.8761 C.3     1  UNL1        0.0000
     26 C           4.1445    1.4832   -1.1511 C.3     1  UNL1        0.0000
     27 C           5.8680    3.9656   -1.6880 C.3     1  UNL1        0.0000
     28 H           4.8054   -0.1107    1.0707 H       1  UNL1        0.0000
     29 H           5.0437   -1.7604    2.8796 H       1  UNL1        0.0000
     30 H           7.1301   -1.9633    4.1485 H       1  UNL1        0.0000
     31 H           9.0444   -0.4774    3.6787 H       1  UNL1        0.0000
     32 H          10.7409    1.3474    2.7439 H       1  UNL1        0.0000
     33 H          11.9366    3.0819    1.4560 H       1  UNL1        0.0000
     34 H          10.8466    4.2226   -0.4190 H       1  UNL1        0.0000
     35 H           8.5389    3.6867   -1.0696 H       1  UNL1        0.0000
     36 H           2.7618    2.1316    1.7293 H       1  UNL1        0.0000
     37 H           3.6081    2.5422    3.2312 H       1  UNL1        0.0000
     38 H           3.6328    5.2730   -0.0621 H       1  UNL1        0.0000
     39 H           2.7847    3.7299   -0.2035 H       1  UNL1        0.0000
     40 H           4.8004    5.8832    2.0512 H       1  UNL1        0.0000
     41 H           4.7949    4.7623    3.4312 H       1  UNL1        0.0000
     42 H           1.1393    2.8613    3.4736 H       1  UNL1        0.0000
     43 H           0.6496    3.3317    1.0844 H       1  UNL1        0.0000
     44 H          -0.0025    4.6034    2.1211 H       1  UNL1        0.0000
     45 H           1.1716    5.5721    0.1574 H       1  UNL1        0.0000
     46 H           1.1865    6.8105    2.3123 H       1  UNL1        0.0000
     47 H           2.6780    7.0948    1.4105 H       1  UNL1        0.0000
     48 H           3.1732    6.6174    3.7947 H       1  UNL1        0.0000
     49 H           1.1840    5.2092    4.2699 H       1  UNL1        0.0000
     50 H           2.6715    4.3689    4.7206 H       1  UNL1        0.0000
     51 H           3.4255    1.1141   -0.4265 H       1  UNL1        0.0000
     52 H           4.6167    0.6219   -1.6128 H       1  UNL1        0.0000
     53 H           3.5892    2.0014   -1.9261 H       1  UNL1        0.0000
     54 H           6.4142    4.8032   -1.2629 H       1  UNL1        0.0000
     55 H           4.9602    4.3570   -2.1357 H       1  UNL1        0.0000
     56 H           6.4638    3.5406   -2.4888 H       1  UNL1        0.0000
@<TRIPOS>BOND
     1    56    27    1
     2    55    27    1
     3    53    26    1
     4    27    54    1
     5    27     1    1
     6    52    26    1
     7    26    51    1
     8    26     1    1
     9    35    10    1
    10    34     9    1
    11     1    11    1
    12     1     2    1
    13    10     9   ar
    14    10    15   ar
    15    39    18    1
    16    38    18    1
    17     9     8   ar
    18    45    22    1
    19    11    15    1
    20    11    12    1
    21    18    22    1
    22    18    16    1
    23    15    14   ar
    24    22    21    1
    25    22    23    1
    26    28     3    1
    27    43    21    1
    28     2    16    1
    29     8    33    1
    30     8     7   ar
    31    12     3   ar
    32    12    13   ar
    33    47    23    1
    34    14     7   ar
    35    14    13    1
    36    16    17    1
    37    16    19    1
    38     3     4   ar
    39    36    17    1
    40    21    44    1
    41    21    20    1
    42     7    32    1
    43    23    46    1
    44    23    24    1
    45    40    19    1
    46    13     6   ar
    47    17    20    1
    48    17    37    1
    49    19    24    1
    50    19    41    1
    51     4    29    1
    52     4     5   ar
    53    20    42    1
    54    20    25    1
    55    24    48    1
    56    24    25    1
    57     6     5   ar
    58     6    31    1
    59     5    30    1
    60    25    49    1
    61    25    50    1
