@<TRIPOS>MOLECULE
2,11,12,15
 73 77 0 0 0
SMALL
GASTEIGER

@<TRIPOS>ATOM
      1 SI          2.0996   12.3300    2.5943 Si      1  UNL1        0.0000
      2 N           1.4107   12.8559    4.1131 N.3     1  UNL1        0.0000
      3 C           0.4071   15.0281    1.0661 C.ar    1  UNL1        0.0000
      4 C          -0.3846   16.1048    0.6977 C.ar    1  UNL1        0.0000
      5 C          -1.7876   15.9577    0.6176 C.ar    1  UNL1        0.0000
      6 C          -2.3523   14.7114    0.8442 C.ar    1  UNL1        0.0000
      7 C          -3.0809   11.5349    1.4299 C.ar    1  UNL1        0.0000
      8 C          -3.0680   10.1795    1.6858 C.ar    1  UNL1        0.0000
      9 C          -1.8666    9.5186    1.9642 C.ar    1  UNL1        0.0000
     10 C          -0.6645   10.1902    1.9975 C.ar    1  UNL1        0.0000
     11 C           0.4500   12.5100    1.6800 C.3     1  UNL1        0.0000
     12 C          -0.1485   13.7702    1.3294 C.ar    1  UNL1        0.0000
     13 C          -1.5684   13.6206    1.2000 C.ar    1  UNL1        0.0000
     14 C          -1.8804   12.2424    1.4606 C.ar    1  UNL1        0.0000
     15 C          -0.6380   11.5729    1.7476 C.ar    1  UNL1        0.0000
     16 C           0.3133   17.4259    0.4163 C.3     1  UNL1        0.0000
     17 C          -0.6292   18.4060   -0.2904 C.3     1  UNL1        0.0000
     18 C          -1.9990   18.4510    0.3619 C.3     1  UNL1        0.0000
     19 C          -2.7233   17.1033    0.2702 C.3     1  UNL1        0.0000
     20 C           0.7952   18.0134    1.7503 C.3     1  UNL1        0.0000
     21 C           1.5294   17.2216   -0.5009 C.3     1  UNL1        0.0000
     22 C          -3.9037   17.1529    1.2540 C.3     1  UNL1        0.0000
     23 C          -3.2693   16.8914   -1.1491 C.3     1  UNL1        0.0000
     24 C           2.1537   13.0658    5.3406 C.3     1  UNL1        0.0000
     25 C           2.8883   11.7730    5.7290 C.3     1  UNL1        0.0000
     26 C           1.1940   13.4226    6.4953 C.3     1  UNL1        0.0000
     27 C           3.0984   14.2503    5.1659 C.ar    1  UNL1        0.0000
     28 C           2.5932   15.4001    4.5643 C.ar    1  UNL1        0.0000
     29 C           3.3857   16.5210    4.4028 C.ar    1  UNL1        0.0000
     30 C           4.7044   16.5086    4.8281 C.ar    1  UNL1        0.0000
     31 C           5.2167   15.3697    5.4204 C.ar    1  UNL1        0.0000
     32 C           4.4182   14.2505    5.5947 C.ar    1  UNL1        0.0000
     33 C           3.5368   13.4182    1.9290 C.3     1  UNL1        0.0000
     34 C           2.7964   10.5374    2.5472 C.3     1  UNL1        0.0000
     35 H           1.4807   15.1384    1.1154 H       1  UNL1        0.0000
     36 H          -3.4192   14.5725    0.7420 H       1  UNL1        0.0000
     37 H          -4.0084   12.0419    1.1976 H       1  UNL1        0.0000
     38 H          -3.9897    9.6163    1.6620 H       1  UNL1        0.0000
     39 H          -1.8878    8.4533    2.1479 H       1  UNL1        0.0000
     40 H           0.2542    9.6511    2.1822 H       1  UNL1        0.0000
     41 H          -0.1826   19.4034   -0.2790 H       1  UNL1        0.0000
     42 H          -0.7342   18.1067   -1.3348 H       1  UNL1        0.0000
     43 H          -2.6106   19.2194   -0.1172 H       1  UNL1        0.0000
     44 H          -1.8921   18.7280    1.4124 H       1  UNL1        0.0000
     45 H           1.3135   18.9563    1.5850 H       1  UNL1        0.0000
     46 H           1.4777   17.3200    2.2356 H       1  UNL1        0.0000
     47 H          -0.0393   18.1911    2.4248 H       1  UNL1        0.0000
     48 H           1.2543   16.6270   -1.3693 H       1  UNL1        0.0000
     49 H           2.3475   16.7233    0.0114 H       1  UNL1        0.0000
     50 H           1.8931   18.1882   -0.8454 H       1  UNL1        0.0000
     51 H          -3.5447   17.1180    2.2809 H       1  UNL1        0.0000
     52 H          -4.5930   16.3271    1.1033 H       1  UNL1        0.0000
     53 H          -4.4590   18.0787    1.1141 H       1  UNL1        0.0000
     54 H          -3.9615   17.6895   -1.4114 H       1  UNL1        0.0000
     55 H          -3.7957   15.9424   -1.2175 H       1  UNL1        0.0000
     56 H          -2.4628   16.8772   -1.8778 H       1  UNL1        0.0000
     57 H           3.6915   11.5645    5.0290 H       1  UNL1        0.0000
     58 H           2.1737   10.9525    5.6931 H       1  UNL1        0.0000
     59 H           3.2925   11.8386    6.7362 H       1  UNL1        0.0000
     60 H           1.7680   13.6285    7.3979 H       1  UNL1        0.0000
     61 H           0.5200   12.5862    6.6837 H       1  UNL1        0.0000
     62 H           0.6107   14.3089    6.2403 H       1  UNL1        0.0000
     63 H           1.5628   15.3923    4.2126 H       1  UNL1        0.0000
     64 H           2.9792   17.4127    3.9478 H       1  UNL1        0.0000
     65 H           5.3258   17.3822    4.6977 H       1  UNL1        0.0000
     66 H           6.2442   15.3497    5.7541 H       1  UNL1        0.0000
     67 H           4.8420   13.3799    6.0693 H       1  UNL1        0.0000
     68 H           4.4698   13.1344    2.4056 H       1  UNL1        0.0000
     69 H           3.3870   14.4730    2.1327 H       1  UNL1        0.0000
     70 H           3.6641   13.2925    0.8587 H       1  UNL1        0.0000
     71 H           3.8559   10.5286    2.7826 H       1  UNL1        0.0000
     72 H           2.6855   10.1059    1.5575 H       1  UNL1        0.0000
     73 H           2.2979    9.8842    3.2564 H       1  UNL1        0.0000
@<TRIPOS>BOND
     1    56    23    1
     2    54    23    1
     3    48    21    1
     4    42    17    1
     5    55    23    1
     6    23    19    1
     7    50    21    1
     8    21    49    1
     9    21    16    1
    10    17    41    1
    11    17    18    1
    12    17    16    1
    13    43    18    1
    14    19    18    1
    15    19     5    1
    16    19    22    1
    17    18    44    1
    18    16     4    1
    19    16    20    1
    20     5     4   ar
    21     5     6   ar
    22     4     3   ar
    23    36     6    1
    24     6    13   ar
    25    70    33    1
    26     3    35    1
    27     3    12   ar
    28    52    22    1
    29    53    22    1
    30    37     7    1
    31    13    12   ar
    32    13    14    1
    33    22    51    1
    34    12    11    1
    35     7    14   ar
    36     7     8   ar
    37    14    15   ar
    38    72    34    1
    39    45    20    1
    40    38     8    1
    41    11    15    1
    42    11     1    1
    43     8     9   ar
    44    15    10   ar
    45    20    46    1
    46    20    47    1
    47    33    69    1
    48    33    68    1
    49    33     1    1
    50     9    10   ar
    51     9    39    1
    52    10    40    1
    53    34     1    1
    54    34    71    1
    55    34    73    1
    56     1     2    1
    57    64    29    1
    58     2    24    1
    59    63    28    1
    60    29    28   ar
    61    29    30   ar
    62    28    27   ar
    63    65    30    1
    64    30    31   ar
    65    57    25    1
    66    27    24    1
    67    27    32   ar
    68    24    25    1
    69    24    26    1
    70    31    32   ar
    71    31    66    1
    72    32    67    1
    73    58    25    1
    74    25    59    1
    75    62    26    1
    76    26    61    1
    77    26    60    1
