@<TRIPOS>MOLECULE
4,5,6,23
 52 54 0 0 0
SMALL
GASTEIGER

@<TRIPOS>ATOM
      1 SI          2.4981    2.3669    4.2241 Si      1  UNL1        0.0000
      2 O           4.8509    2.2346   -2.3031 O.3     1  UNL1        0.0000
      3 O           4.2305    8.8552    2.1713 O.3     1  UNL1        0.0000
      4 N           4.2112    2.0882    4.3712 N.3     1  UNL1        0.0000
      5 C           2.7203    3.4936    2.7183 C.3     1  UNL1        0.0000
      6 C           3.2427    2.9993    1.4747 C.ar    1  UNL1        0.0000
      7 C           3.2077    1.7194    0.8884 C.ar    1  UNL1        0.0000
      8 H           2.7181    0.8989    1.3954 H       1  UNL1        0.0000
      9 C           3.7557    1.5302   -0.3555 C.ar    1  UNL1        0.0000
     10 H           3.7320    0.5628   -0.8338 H       1  UNL1        0.0000
     11 C           4.3600    2.5864   -1.0703 C.ar    1  UNL1        0.0000
     12 C           4.4230    3.8530   -0.5249 C.ar    1  UNL1        0.0000
     13 H           4.8706    4.6800   -1.0567 H       1  UNL1        0.0000
     14 C           3.8813    4.0655    0.7492 C.ar    1  UNL1        0.0000
     15 C           3.7687    5.2480    1.5517 C.ar    1  UNL1        0.0000
     16 C           4.1773    6.5674    1.3183 C.ar    1  UNL1        0.0000
     17 H           4.6992    6.8077    0.4034 H       1  UNL1        0.0000
     18 C           3.8855    7.5297    2.2638 C.ar    1  UNL1        0.0000
     19 C           3.1719    7.1879    3.4320 C.ar    1  UNL1        0.0000
     20 H           2.9548    7.9848    4.1265 H       1  UNL1        0.0000
     21 C           2.7573    5.9036    3.6761 C.ar    1  UNL1        0.0000
     22 H           2.1814    5.6811    4.5630 H       1  UNL1        0.0000
     23 C           3.0525    4.8885    2.7472 C.ar    1  UNL1        0.0000
     24 C           4.9155    9.2824    1.0240 C.3     1  UNL1        0.0000
     25 H           5.8826    8.7775    0.9186 H       1  UNL1        0.0000
     26 H           5.0823   10.3503    1.1577 H       1  UNL1        0.0000
     27 H           4.3231    9.1208    0.1165 H       1  UNL1        0.0000
     28 C           5.4512    3.2327   -3.0854 C.3     1  UNL1        0.0000
     29 H           6.3333    3.6566   -2.5924 H       1  UNL1        0.0000
     30 H           4.7473    4.0384   -3.3219 H       1  UNL1        0.0000
     31 H           5.7581    2.7426   -4.0084 H       1  UNL1        0.0000
     32 C           1.3661    0.8529    3.8615 C.3     1  UNL1        0.0000
     33 H           1.9208    0.0147    3.4519 H       1  UNL1        0.0000
     34 H           0.5850    1.1082    3.1525 H       1  UNL1        0.0000
     35 H           0.8799    0.5103    4.7690 H       1  UNL1        0.0000
     36 C           1.7434    3.2343    5.7629 C.3     1  UNL1        0.0000
     37 H           1.4914    2.5074    6.5281 H       1  UNL1        0.0000
     38 H           0.8307    3.7633    5.5094 H       1  UNL1        0.0000
     39 H           2.4400    3.9449    6.1991 H       1  UNL1        0.0000
     40 C           4.9051    1.0545    5.1068 C.3     1  UNL1        0.0000
     41 C           5.2127   -0.1143    4.1513 C.3     1  UNL1        0.0000
     42 H           4.2841   -0.5775    3.8251 H       1  UNL1        0.0000
     43 H           5.8247   -0.8666    4.6440 H       1  UNL1        0.0000
     44 H           5.7403    0.2656    3.2737 H       1  UNL1        0.0000
     45 C           6.2263    1.6216    5.6581 C.3     1  UNL1        0.0000
     46 H           6.8691    1.9355    4.8323 H       1  UNL1        0.0000
     47 H           6.7447    0.8688    6.2489 H       1  UNL1        0.0000
     48 H           6.0150    2.4834    6.2912 H       1  UNL1        0.0000
     49 C           4.0717    0.5403    6.2884 C.3     1  UNL1        0.0000
     50 H           3.8325    1.3647    6.9545 H       1  UNL1        0.0000
     51 H           4.6287   -0.2112    6.8430 H       1  UNL1        0.0000
     52 H           3.1462    0.0972    5.9343 H       1  UNL1        0.0000
@<TRIPOS>BOND
     1    31    28    1
     2    30    28    1
     3    28    29    1
     4    28     2    1
     5     2    11    1
     6    11    12   ar
     7    11     9   ar
     8    13    12    1
     9    10     9    1
    10    12    14   ar
    11     9     7   ar
    12    27    24    1
    13    17    16    1
    14    14     6   ar
    15    14    15    1
    16     7     8    1
    17     7     6   ar
    18    25    24    1
    19    24    26    1
    20    24     3    1
    21    16    15   ar
    22    16    18   ar
    23     6     5    1
    24    15    23   ar
    25     3    18    1
    26    18    19   ar
    27     5    23    1
    28     5     1    1
    29    23    21   ar
    30    34    32    1
    31    44    41    1
    32    19    21   ar
    33    19    20    1
    34    33    32    1
    35    21    22    1
    36    42    41    1
    37    32     1    1
    38    32    35    1
    39    41    43    1
    40    41    40    1
    41     1     4    1
    42     1    36    1
    43     4    40    1
    44    46    45    1
    45    40    45    1
    46    40    49    1
    47    38    36    1
    48    45    47    1
    49    45    48    1
    50    36    39    1
    51    36    37    1
    52    52    49    1
    53    49    51    1
    54    49    50    1
