@<TRIPOS>MOLECULE
2,3,5
 80 85 0 0 0
SMALL
GASTEIGER

@<TRIPOS>ATOM
      1 SI          3.0899    3.8152    4.5712 Si      1  UNL1        0.0000
      2 N           3.7482    2.7011    3.4052 N.3     1  UNL1        0.0000
      3 C           5.9265    4.2546    5.0488 C.ar    1  UNL1        0.0000
      4 C           4.6792    3.8001    5.6009 C.3     1  UNL1        0.0000
      5 C           5.0312    2.8544    6.6206 C.ar    1  UNL1        0.0000
      6 C           4.2287    2.1167    7.5068 C.ar    1  UNL1        0.0000
      7 H           3.1606    2.2575    7.4650 H       1  UNL1        0.0000
      8 C           4.8008    1.2560    8.4217 C.ar    1  UNL1        0.0000
      9 C           6.2049    1.1459    8.4738 C.ar    1  UNL1        0.0000
     10 H           6.6591    0.4821    9.1938 H       1  UNL1        0.0000
     11 C           7.0273    1.8694    7.6406 C.ar    1  UNL1        0.0000
     12 H           8.1029    1.7776    7.7199 H       1  UNL1        0.0000
     13 C           6.4606    2.7265    6.6975 C.ar    1  UNL1        0.0000
     14 C           7.0247    3.6117    5.7179 C.ar    1  UNL1        0.0000
     15 C           8.3335    3.9439    5.3679 C.ar    1  UNL1        0.0000
     16 H           9.1702    3.4983    5.8907 H       1  UNL1        0.0000
     17 C           8.5516    4.8448    4.3500 C.ar    1  UNL1        0.0000
     18 H           9.5707    5.0877    4.0892 H       1  UNL1        0.0000
     19 C           7.4925    5.4516    3.6439 C.ar    1  UNL1        0.0000
     20 C           6.1916    5.1597    4.0047 C.ar    1  UNL1        0.0000
     21 H           5.3552    5.6444    3.5242 H       1  UNL1        0.0000
     22 C           7.8294    6.3986    2.5000 C.3     1  UNL1        0.0000
     23 C           6.5823    6.9653    1.8149 C.3     1  UNL1        0.0000
     24 H           5.9726    6.1675    1.3956 H       1  UNL1        0.0000
     25 H           6.8838    7.6224    1.0011 H       1  UNL1        0.0000
     26 H           5.9828    7.5474    2.5110 H       1  UNL1        0.0000
     27 C           8.6383    5.6323    1.4427 C.3     1  UNL1        0.0000
     28 H           9.5677    5.2485    1.8543 H       1  UNL1        0.0000
     29 H           8.8810    6.2861    0.6072 H       1  UNL1        0.0000
     30 H           8.0587    4.7914    1.0649 H       1  UNL1        0.0000
     31 C           8.6556    7.5751    3.0379 C.3     1  UNL1        0.0000
     32 H           8.0945    8.1071    3.8035 H       1  UNL1        0.0000
     33 H           8.8890    8.2703    2.2337 H       1  UNL1        0.0000
     34 H           9.5901    7.2362    3.4760 H       1  UNL1        0.0000
     35 C           3.9705    0.4063    9.3736 C.3     1  UNL1        0.0000
     36 C           4.2609   -1.0755    9.0927 C.3     1  UNL1        0.0000
     37 H           4.0216   -1.3139    8.0579 H       1  UNL1        0.0000
     38 H           3.6579   -1.7077    9.7416 H       1  UNL1        0.0000
     39 H           5.3072   -1.3139    9.2631 H       1  UNL1        0.0000
     40 C           2.4646    0.6315    9.2085 C.3     1  UNL1        0.0000
     41 H           2.1979    1.6648    9.4179 H       1  UNL1        0.0000
     42 H           1.9246   -0.0034    9.9085 H       1  UNL1        0.0000
     43 H           2.1384    0.3759    8.2028 H       1  UNL1        0.0000
     44 C           4.3448    0.7462   10.8230 C.3     1  UNL1        0.0000
     45 H           5.3929    0.5407   11.0218 H       1  UNL1        0.0000
     46 H           3.7458    0.1564   11.5143 H       1  UNL1        0.0000
     47 H           4.1619    1.8007   11.0192 H       1  UNL1        0.0000
     48 C           1.5332    3.1113    5.4493 C.3     1  UNL1        0.0000
     49 H           0.6482    3.2678    4.8408 H       1  UNL1        0.0000
     50 H           1.3587    3.6000    6.4020 H       1  UNL1        0.0000
     51 H           1.6279    2.0431    5.6246 H       1  UNL1        0.0000
     52 C           2.6034    5.5814    3.9753 C.3     1  UNL1        0.0000
     53 H           3.0566    5.8342    3.0218 H       1  UNL1        0.0000
     54 H           2.9083    6.3364    4.6931 H       1  UNL1        0.0000
     55 H           1.5278    5.6635    3.8560 H       1  UNL1        0.0000
     56 C           3.3212    2.4346    2.0546 C.3     1  UNL1        0.0000
     57 C           3.5251    0.9421    1.7291 C.3     1  UNL1        0.0000
     58 H           4.5804    0.6872    1.8912 H       1  UNL1        0.0000
     59 H           2.9175    0.3478    2.4190 H       1  UNL1        0.0000
     60 C           3.1277    0.6511    0.2820 C.3     1  UNL1        0.0000
     61 H           3.2853   -0.4126    0.0696 H       1  UNL1        0.0000
     62 C           3.9904    1.4904   -0.6599 C.3     1  UNL1        0.0000
     63 H           3.7260    1.2750   -1.6976 H       1  UNL1        0.0000
     64 H           5.0442    1.2378   -0.5212 H       1  UNL1        0.0000
     65 C           3.7696    2.9734   -0.3653 C.3     1  UNL1        0.0000
     66 H           4.3818    3.5758   -1.0466 H       1  UNL1        0.0000
     67 C           4.1683    3.2743    1.0782 C.3     1  UNL1        0.0000
     68 H           4.0080    4.3329    1.2988 H       1  UNL1        0.0000
     69 H           5.2278    3.0459    1.2499 H       1  UNL1        0.0000
     70 C           2.2945    3.3213   -0.5659 C.3     1  UNL1        0.0000
     71 H           2.1323    4.3831   -0.3680 H       1  UNL1        0.0000
     72 H           2.0035    3.1251   -1.6002 H       1  UNL1        0.0000
     73 C           1.4418    2.4790    0.3821 C.3     1  UNL1        0.0000
     74 H           0.3846    2.7327    0.2429 H       1  UNL1        0.0000
     75 C           1.6540    0.9977    0.0772 C.3     1  UNL1        0.0000
     76 H           1.0335    0.3885    0.7380 H       1  UNL1        0.0000
     77 H           1.3592    0.7833   -0.9524 H       1  UNL1        0.0000
     78 C           1.8403    2.7710    1.8285 C.3     1  UNL1        0.0000
     79 H           1.2353    2.1772    2.5161 H       1  UNL1        0.0000
     80 H           1.6724    3.8244    2.0526 H       1  UNL1        0.0000
@<TRIPOS>BOND
     1    63    62    1
     2    72    70    1
     3    66    65    1
     4    77    75    1
     5    62    64    1
     6    62    65    1
     7    62    60    1
     8    70    71    1
     9    70    65    1
    10    70    73    1
    11    65    67    1
    12    61    60    1
    13    75    60    1
    14    75    73    1
    15    75    76    1
    16    74    73    1
    17    60    57    1
    18    73    78    1
    19    29    27    1
    20    25    23    1
    21    30    27    1
    22    67    69    1
    23    67    68    1
    24    67    56    1
    25    24    23    1
    26    27    28    1
    27    27    22    1
    28    57    58    1
    29    57    56    1
    30    57    59    1
    31    23    22    1
    32    23    26    1
    33    78    80    1
    34    78    56    1
    35    78    79    1
    36    56     2    1
    37    33    31    1
    38    22    31    1
    39    22    19    1
    40    53    52    1
    41    31    34    1
    42    31    32    1
    43     2     1    1
    44    21    20    1
    45    19    20   ar
    46    19    17   ar
    47    55    52    1
    48    52     1    1
    49    52    54    1
    50    20     3   ar
    51    18    17    1
    52    17    15   ar
    53     1    48    1
    54     1     4    1
    55    49    48    1
    56     3     4    1
    57     3    14   ar
    58    15    14   ar
    59    15    16    1
    60    48    51    1
    61    48    50    1
    62     4     5    1
    63    14    13    1
    64     5    13   ar
    65     5     6   ar
    66    13    11   ar
    67     7     6    1
    68     6     8   ar
    69    11    12    1
    70    11     9   ar
    71    37    36    1
    72    43    40    1
    73     8     9   ar
    74     8    35    1
    75     9    10    1
    76    36    39    1
    77    36    35    1
    78    36    38    1
    79    40    35    1
    80    40    41    1
    81    40    42    1
    82    35    44    1
    83    44    47    1
    84    44    45    1
    85    44    46    1
