@<TRIPOS>MOLECULE
4,5,6,23
 64 69 0 0 0
SMALL
GASTEIGER

@<TRIPOS>ATOM
      1 SI          0.2537   13.3411   22.9475 Si      1  UNL1        0.0000
      2 O           1.9632   18.1499   27.7715 O.3     1  UNL1        0.0000
      3 O           4.0383   18.3718   20.0292 O.3     1  UNL1        0.0000
      4 N           1.9039   12.8008   23.0720 N.3     1  UNL1        0.0000
      5 C           0.7408   15.1528   23.2066 C.3     1  UNL1        0.0000
      6 C           0.9610   15.7994   24.4671 C.ar    1  UNL1        0.0000
      7 C           0.3874   15.5974   25.7359 C.ar    1  UNL1        0.0000
      8 H          -0.3622   14.8325   25.8801 H       1  UNL1        0.0000
      9 C           0.7569   16.4019   26.7831 C.ar    1  UNL1        0.0000
     10 H           0.3287   16.2705   27.7649 H       1  UNL1        0.0000
     11 C           1.6982   17.4411   26.6260 C.ar    1  UNL1        0.0000
     12 C           2.2671   17.6863   25.3926 C.ar    1  UNL1        0.0000
     13 H           2.9696   18.4929   25.2400 H       1  UNL1        0.0000
     14 C           1.9069   16.8726   24.3107 C.ar    1  UNL1        0.0000
     15 C           2.2815   16.9139   22.9275 C.ar    1  UNL1        0.0000
     16 C           3.1113   17.7867   22.2119 C.ar    1  UNL1        0.0000
     17 H           3.6106   18.5914   22.7319 H       1  UNL1        0.0000
     18 C           3.2595   17.5971   20.8526 C.ar    1  UNL1        0.0000
     19 C           2.5827   16.5447   20.1996 C.ar    1  UNL1        0.0000
     20 H           2.7344   16.4478   19.1353 H       1  UNL1        0.0000
     21 C           1.7549   15.6864   20.8788 C.ar    1  UNL1        0.0000
     22 H           1.2191   14.9133   20.3445 H       1  UNL1        0.0000
     23 C           1.5677   15.8543   22.2646 C.ar    1  UNL1        0.0000
     24 C           2.8641   19.2224   27.6936 C.3     1  UNL1        0.0000
     25 H           3.8618   18.8910   27.3839 H       1  UNL1        0.0000
     26 H           2.9209   19.6364   28.6994 H       1  UNL1        0.0000
     27 H           2.5107   19.9972   27.0041 H       1  UNL1        0.0000
     28 C           4.7275   19.4544   20.5962 C.3     1  UNL1        0.0000
     29 H           4.0399   20.1828   21.0402 H       1  UNL1        0.0000
     30 H           5.2676   19.9253   19.7760 H       1  UNL1        0.0000
     31 H           5.4441   19.1239   21.3564 H       1  UNL1        0.0000
     32 C          -0.8797   12.6140   24.3170 C.3     1  UNL1        0.0000
     33 H          -1.2396   11.6299   24.0348 H       1  UNL1        0.0000
     34 H          -1.7504   13.2398   24.4814 H       1  UNL1        0.0000
     35 H          -0.3487   12.5133   25.2594 H       1  UNL1        0.0000
     36 C          -0.6744   13.0488   21.2864 C.3     1  UNL1        0.0000
     37 H           0.0079   12.8830   20.4585 H       1  UNL1        0.0000
     38 H          -1.2995   13.8991   21.0325 H       1  UNL1        0.0000
     39 H          -1.3214   12.1801   21.3555 H       1  UNL1        0.0000
     40 C           2.4842   11.5449   22.6651 C.3     1  UNL1        0.0000
     41 C           3.6101   11.1521   23.6407 C.3     1  UNL1        0.0000
     42 H           3.1834   11.0440   24.6429 H       1  UNL1        0.0000
     43 H           4.3517   11.9606   23.6654 H       1  UNL1        0.0000
     44 C           4.2687    9.8456   23.1979 C.3     1  UNL1        0.0000
     45 H           5.0684    9.5866   23.9011 H       1  UNL1        0.0000
     46 C           3.2271    8.7284   23.1790 C.3     1  UNL1        0.0000
     47 H           3.6923    7.7885   22.8738 H       1  UNL1        0.0000
     48 H           2.8136    8.5892   24.1799 H       1  UNL1        0.0000
     49 C           2.1135    9.0998   22.2023 C.3     1  UNL1        0.0000
     50 H           1.3597    8.3043   22.1887 H       1  UNL1        0.0000
     51 C           1.4546   10.4064   22.6432 C.3     1  UNL1        0.0000
     52 H           0.6492   10.6647   21.9555 H       1  UNL1        0.0000
     53 H           1.0271   10.2986   23.6416 H       1  UNL1        0.0000
     54 C           2.6995    9.2676   20.8012 C.3     1  UNL1        0.0000
     55 H           1.9051    9.5137   20.0934 H       1  UNL1        0.0000
     56 H           3.1598    8.3318   20.4767 H       1  UNL1        0.0000
     57 C           3.7439   10.3835   20.8198 C.3     1  UNL1        0.0000
     58 H           4.1659   10.5038   19.8156 H       1  UNL1        0.0000
     59 C           3.0823   11.6911   21.2522 C.3     1  UNL1        0.0000
     60 H           3.8080   12.5133   21.2624 H       1  UNL1        0.0000
     61 H           2.2816   11.9550   20.5570 H       1  UNL1        0.0000
     62 C           4.8593   10.0226   21.7997 C.3     1  UNL1        0.0000
     63 H           5.6114   10.8144   21.8128 H       1  UNL1        0.0000
     64 H           5.3482    9.0988   21.4822 H       1  UNL1        0.0000
@<TRIPOS>BOND
     1    20    19    1
     2    30    28    1
     3    58    57    1
     4     3    28    1
     5     3    18    1
     6    55    54    1
     7    19    18   ar
     8    19    21   ar
     9    22    21    1
    10    37    36    1
    11    56    54    1
    12    61    59    1
    13    28    29    1
    14    28    31    1
    15    54    57    1
    16    54    49    1
    17    57    59    1
    18    57    62    1
    19    18    16   ar
    20    21    23   ar
    21    38    36    1
    22    59    60    1
    23    59    40    1
    24    36    39    1
    25    36     1    1
    26    64    62    1
    27    62    63    1
    28    62    44    1
    29    52    51    1
    30    50    49    1
    31    49    51    1
    32    49    46    1
    33    16    17    1
    34    16    15   ar
    35    23    15   ar
    36    23     5    1
    37    51    40    1
    38    51    53    1
    39    40     4    1
    40    40    41    1
    41    47    46    1
    42    15    14    1
    43     1     4    1
    44     1     5    1
    45     1    32    1
    46    46    44    1
    47    46    48    1
    48    44    41    1
    49    44    45    1
    50     5     6    1
    51    41    43    1
    52    41    42    1
    53    33    32    1
    54    14     6   ar
    55    14    12   ar
    56    32    34    1
    57    32    35    1
    58     6     7   ar
    59    13    12    1
    60    12    11   ar
    61     7     8    1
    62     7     9   ar
    63    11     9   ar
    64    11     2    1
    65     9    10    1
    66    27    24    1
    67    25    24    1
    68    24     2    1
    69    24    26    1
