@<TRIPOS>MOLECULE
2,3,4,7
 47 47 0 0 0
SMALL
GASTEIGER

@<TRIPOS>ATOM
      1 SI          6.3699   10.8396    0.1081 Si      1  UNL1        0.0000
      2 N           6.9140   10.0681    1.5303 N.3     1  UNL1        0.0000
      3 C           8.4879   12.7327    0.8571 C.3     1  UNL1        0.0000
      4 C           8.5597   13.7374    1.8819 C.2     1  UNL1        0.0000
      5 C           9.9007   13.8315    2.3042 C.2     1  UNL1        0.0000
      6 C          10.6734   12.8947    1.5719 C.2     1  UNL1        0.0000
      7 C           9.8188   12.2021    0.6931 C.2     1  UNL1        0.0000
      8 C           7.3484   12.5031   -0.0910 C.3     1  UNL1        0.0000
      9 H           7.7370   12.5418   -1.1103 H       1  UNL1        0.0000
     10 H           6.6412   13.3271   -0.0022 H       1  UNL1        0.0000
     11 C           7.4429   14.6952    2.2049 C.3     1  UNL1        0.0000
     12 H           7.3868   15.4797    1.4447 H       1  UNL1        0.0000
     13 H           7.6044   15.1817    3.1657 H       1  UNL1        0.0000
     14 H           6.4806   14.1841    2.2287 H       1  UNL1        0.0000
     15 C          10.4687   14.7431    3.3495 C.3     1  UNL1        0.0000
     16 H          10.9183   14.1679    4.1624 H       1  UNL1        0.0000
     17 H           9.7030   15.3924    3.7687 H       1  UNL1        0.0000
     18 H          11.2489   15.3748    2.9223 H       1  UNL1        0.0000
     19 C          12.1509   12.7150    1.7492 C.3     1  UNL1        0.0000
     20 H          12.6728   13.6567    1.5725 H       1  UNL1        0.0000
     21 H          12.5442   11.9763    1.0545 H       1  UNL1        0.0000
     22 H          12.3859   12.3936    2.7669 H       1  UNL1        0.0000
     23 C          10.2054   11.2577   -0.4149 C.3     1  UNL1        0.0000
     24 H           9.5299   10.4004   -0.4558 H       1  UNL1        0.0000
     25 H          11.2229   10.8943   -0.2835 H       1  UNL1        0.0000
     26 H          10.1555   11.7685   -1.3807 H       1  UNL1        0.0000
     27 C           4.5142   11.3747    0.1213 C.3     1  UNL1        0.0000
     28 H           3.8441   10.5217    0.1419 H       1  UNL1        0.0000
     29 H           4.2777   11.9485   -0.7695 H       1  UNL1        0.0000
     30 H           4.2732   11.9986    0.9780 H       1  UNL1        0.0000
     31 C           6.5611    9.9449   -1.5883 C.3     1  UNL1        0.0000
     32 H           7.5880    9.6532   -1.7890 H       1  UNL1        0.0000
     33 H           6.2462   10.5940   -2.4001 H       1  UNL1        0.0000
     34 H           5.9505    9.0487   -1.6431 H       1  UNL1        0.0000
     35 C           6.6766    8.6543    1.7967 C.3     1  UNL1        0.0000
     36 C           5.2708    8.2005    1.3775 C.3     1  UNL1        0.0000
     37 H           4.5212    8.8130    1.8713 H       1  UNL1        0.0000
     38 H           5.1103    7.1597    1.6505 H       1  UNL1        0.0000
     39 H           5.1443    8.3018    0.3060 H       1  UNL1        0.0000
     40 C           6.8139    8.3712    3.3081 C.3     1  UNL1        0.0000
     41 H           7.8284    8.5998    3.6579 H       1  UNL1        0.0000
     42 H           6.6162    7.3192    3.5098 H       1  UNL1        0.0000
     43 H           6.0961    8.9675    3.8703 H       1  UNL1        0.0000
     44 C           7.7232    7.7996    1.0571 C.3     1  UNL1        0.0000
     45 H           7.5941    7.9096   -0.0152 H       1  UNL1        0.0000
     46 H           7.6240    6.7477    1.3178 H       1  UNL1        0.0000
     47 H           8.7249    8.1403    1.3261 H       1  UNL1        0.0000
@<TRIPOS>BOND
     1    33    31    1
     2    32    31    1
     3    34    31    1
     4    31     1    1
     5    26    23    1
     6     9     8    1
     7    29    27    1
     8    24    23    1
     9    23    25    1
    10    23     7    1
    11     8    10    1
    12     8     1    1
    13     8     3    1
    14    45    44    1
    15     1    27    1
    16     1     2    1
    17    27    28    1
    18    27    30    1
    19    39    36    1
    20     7     3    1
    21     7     6    2
    22     3     4    1
    23    21    19    1
    24    44    46    1
    25    44    47    1
    26    44    35    1
    27    36    38    1
    28    36    35    1
    29    36    37    1
    30    12    11    1
    31     2    35    1
    32     6    19    1
    33     6     5    1
    34    20    19    1
    35    19    22    1
    36    35    40    1
    37     4    11    1
    38     4     5    2
    39    11    14    1
    40    11    13    1
    41     5    15    1
    42    18    15    1
    43    40    42    1
    44    40    41    1
    45    40    43    1
    46    15    17    1
    47    15    16    1
