@<TRIPOS>MOLECULE
2,3,4,5
 68 70 0 0 0
SMALL
GASTEIGER

@<TRIPOS>ATOM
      1 SI         -0.8551   -1.1696   16.3803 Si      1  UNL1        0.0000
      2 N          -0.3901    0.3496   15.6657 N.3     1  UNL1        0.0000
      3 C          -1.1443   -1.9123   13.5781 C.ar    1  UNL1        0.0000
      4 C          -1.8079   -1.7061   14.8355 C.3     1  UNL1        0.0000
      5 C          -3.1521   -1.3331   14.5027 C.ar    1  UNL1        0.0000
      6 C          -3.3160   -1.2979   13.0743 C.ar    1  UNL1        0.0000
      7 C          -2.0550   -1.6700   12.4914 C.ar    1  UNL1        0.0000
      8 C           0.1707   -2.2956   13.2609 C.ar    1  UNL1        0.0000
      9 C           0.5329   -2.4450   11.9427 C.ar    1  UNL1        0.0000
     10 C          -0.3597   -2.2293   10.8730 C.ar    1  UNL1        0.0000
     11 C          -1.6554   -1.8454   11.1650 C.ar    1  UNL1        0.0000
     12 C          -4.2769   -1.0572   15.2974 C.ar    1  UNL1        0.0000
     13 C          -5.4715   -0.7409   14.6964 C.ar    1  UNL1        0.0000
     14 C          -5.6352   -0.6852   13.2977 C.ar    1  UNL1        0.0000
     15 C          -4.5469   -0.9790   12.4974 C.ar    1  UNL1        0.0000
     16 C           0.1444   -2.4153    9.4495 C.3     1  UNL1        0.0000
     17 C           0.6443   -3.8555    9.2679 C.3     1  UNL1        0.0000
     18 C          -0.9416   -2.1563    8.4013 C.3     1  UNL1        0.0000
     19 C           1.2941   -1.4290    9.1953 C.3     1  UNL1        0.0000
     20 C          -6.9964   -0.3051   12.7345 C.3     1  UNL1        0.0000
     21 C          -8.0471   -1.3167   13.2138 C.3     1  UNL1        0.0000
     22 C          -7.0177   -0.2901   11.2033 C.3     1  UNL1        0.0000
     23 C          -7.3656    1.1017   13.2280 C.3     1  UNL1        0.0000
     24 C           0.5388   -2.4055   16.8638 C.3     1  UNL1        0.0000
     25 C          -1.9384   -0.9579   17.9522 C.3     1  UNL1        0.0000
     26 C           0.6560    1.2610   16.0731 C.3     1  UNL1        0.0000
     27 C           0.2044    2.7089   15.8069 C.3     1  UNL1        0.0000
     28 C           0.9802    1.1261   17.5671 C.3     1  UNL1        0.0000
     29 C           1.9232    0.9641   15.2481 C.3     1  UNL1        0.0000
     30 H           0.8827   -2.5101   14.0477 H       1  UNL1        0.0000
     31 H           1.5466   -2.7494   11.7246 H       1  UNL1        0.0000
     32 H          -2.3809   -1.6787   10.3828 H       1  UNL1        0.0000
     33 H          -4.2126   -1.1196   16.3751 H       1  UNL1        0.0000
     34 H          -6.3212   -0.5343   15.3309 H       1  UNL1        0.0000
     35 H          -4.6253   -0.9770   11.4205 H       1  UNL1        0.0000
     36 H          -0.1613   -4.5592    9.4670 H       1  UNL1        0.0000
     37 H           1.4656   -4.0797    9.9427 H       1  UNL1        0.0000
     38 H           0.9916   -4.0071    8.2476 H       1  UNL1        0.0000
     39 H          -1.3085   -1.1340    8.4617 H       1  UNL1        0.0000
     40 H          -1.7758   -2.8431    8.5252 H       1  UNL1        0.0000
     41 H          -0.5284   -2.3058    7.4055 H       1  UNL1        0.0000
     42 H           2.1259   -1.6066    9.8717 H       1  UNL1        0.0000
     43 H           0.9496   -0.4066    9.3394 H       1  UNL1        0.0000
     44 H           1.6580   -1.5295    8.1746 H       1  UNL1        0.0000
     45 H          -9.0234   -1.0689   12.8015 H       1  UNL1        0.0000
     46 H          -8.1277   -1.3227   14.2972 H       1  UNL1        0.0000
     47 H          -7.7779   -2.3192   12.8873 H       1  UNL1        0.0000
     48 H          -8.0098   -0.0068   10.8566 H       1  UNL1        0.0000
     49 H          -6.7896   -1.2740   10.7997 H       1  UNL1        0.0000
     50 H          -6.3058    0.4316   10.8086 H       1  UNL1        0.0000
     51 H          -7.4220    1.1392   14.3124 H       1  UNL1        0.0000
     52 H          -8.3317    1.4008   12.8260 H       1  UNL1        0.0000
     53 H          -6.6182    1.8225   12.9012 H       1  UNL1        0.0000
     54 H           0.2524   -3.4276   16.6375 H       1  UNL1        0.0000
     55 H           0.7450   -2.3552   17.9280 H       1  UNL1        0.0000
     56 H           1.4678   -2.2013   16.3410 H       1  UNL1        0.0000
     57 H          -1.3174   -0.8037   18.8287 H       1  UNL1        0.0000
     58 H          -2.5413   -1.8408   18.1369 H       1  UNL1        0.0000
     59 H          -2.6033   -0.1031   17.8636 H       1  UNL1        0.0000
     60 H           0.9657    3.4112   16.1413 H       1  UNL1        0.0000
     61 H          -0.7202    2.9059   16.3495 H       1  UNL1        0.0000
     62 H           0.0273    2.8533   14.7386 H       1  UNL1        0.0000
     63 H           1.7439    1.8456   17.8532 H       1  UNL1        0.0000
     64 H           1.3431    0.1271   17.7873 H       1  UNL1        0.0000
     65 H           0.0849    1.3104   18.1546 H       1  UNL1        0.0000
     66 H           2.2946   -0.0294   15.4900 H       1  UNL1        0.0000
     67 H           2.7039    1.6910   15.4613 H       1  UNL1        0.0000
     68 H           1.6781    0.9957   14.1843 H       1  UNL1        0.0000
@<TRIPOS>BOND
     1    41    18    1
     2    44    19    1
     3    38    17    1
     4    18    39    1
     5    18    40    1
     6    18    16    1
     7    19    43    1
     8    19    16    1
     9    19    42    1
    10    17    16    1
    11    17    36    1
    12    17    37    1
    13    16    10    1
    14    32    11    1
    15    49    22    1
    16    50    22    1
    17    48    22    1
    18    10    11   ar
    19    10     9   ar
    20    11     7   ar
    21    22    20    1
    22    35    15    1
    23    31     9    1
    24     9     8   ar
    25     7     6    1
    26     7     3   ar
    27    15     6   ar
    28    15    14   ar
    29    20    21    1
    30    20    23    1
    31    20    14    1
    32    45    21    1
    33    52    23    1
    34    47    21    1
    35    53    23    1
    36     6     5   ar
    37    21    46    1
    38    23    51    1
    39     8     3   ar
    40     8    30    1
    41    14    13   ar
    42     3     4    1
    43    68    29    1
    44     5     4    1
    45     5    12   ar
    46    13    12   ar
    47    13    34    1
    48    62    27    1
    49     4     1    1
    50    29    67    1
    51    29    66    1
    52    29    26    1
    53    12    33    1
    54     2    26    1
    55     2     1    1
    56    27    26    1
    57    27    60    1
    58    27    61    1
    59    26    28    1
    60    56    24    1
    61     1    24    1
    62     1    25    1
    63    54    24    1
    64    24    55    1
    65    28    64    1
    66    28    63    1
    67    28    65    1
    68    59    25    1
    69    25    58    1
    70    25    57    1
