@<TRIPOS>MOLECULE
2,3,4,5
 68 70 0 0 0
SMALL
GASTEIGER

@<TRIPOS>ATOM
      1 SI         -3.2712   -0.9519   -4.4318 Si      1  UNL1        0.0000
      2 N          -4.3187   -1.6058   -3.2021 N.3     1  UNL1        0.0000
      3 C          -5.1178    1.2852   -4.1794 C.ar    1  UNL1        0.0000
      4 C          -3.7629    0.8307   -4.0224 C.3     1  UNL1        0.0000
      5 C          -3.1935    1.6628   -3.0013 C.ar    1  UNL1        0.0000
      6 C          -4.1720    2.6084   -2.5380 C.ar    1  UNL1        0.0000
      7 C          -5.3776    2.3789   -3.2836 C.ar    1  UNL1        0.0000
      8 C          -6.1486    0.8219   -5.0170 C.ar    1  UNL1        0.0000
      9 C          -7.3891    1.4293   -5.0029 C.ar    1  UNL1        0.0000
     10 C          -7.6028    2.5301   -4.1484 C.ar    1  UNL1        0.0000
     11 C          -6.6245    3.0036   -3.3034 C.ar    1  UNL1        0.0000
     12 C          -1.8997    1.6927   -2.4545 C.ar    1  UNL1        0.0000
     13 C          -1.5757    2.5997   -1.4656 C.ar    1  UNL1        0.0000
     14 C          -2.5532    3.5168   -1.0302 C.ar    1  UNL1        0.0000
     15 C          -3.8251    3.5358   -1.5559 C.ar    1  UNL1        0.0000
     16 C          -8.5443    0.9454   -5.8689 C.3     1  UNL1        0.0000
     17 C          -8.9977    2.0812   -6.7962 C.3     1  UNL1        0.0000
     18 C          -9.7049    0.5216   -4.9568 C.3     1  UNL1        0.0000
     19 C          -8.1674   -0.2575   -6.7387 C.3     1  UNL1        0.0000
     20 C          -0.2006    2.6398   -0.8137 C.3     1  UNL1        0.0000
     21 C           0.4308    4.0213   -1.0339 C.3     1  UNL1        0.0000
     22 C          -0.3600    2.3725    0.6903 C.3     1  UNL1        0.0000
     23 C           0.7550    1.5856   -1.3804 C.3     1  UNL1        0.0000
     24 C          -1.4222   -1.3773   -4.1297 C.3     1  UNL1        0.0000
     25 C          -3.6210   -1.4209   -6.2668 C.3     1  UNL1        0.0000
     26 C          -4.8241   -2.9519   -3.0546 C.3     1  UNL1        0.0000
     27 C          -3.9104   -3.9831   -3.7306 C.3     1  UNL1        0.0000
     28 C          -4.9195   -3.2995   -1.5572 C.3     1  UNL1        0.0000
     29 C          -6.2289   -3.0236   -3.6840 C.3     1  UNL1        0.0000
     30 H          -5.9313    0.0083   -5.6922 H       1  UNL1        0.0000
     31 H          -8.5634    3.0229   -4.1483 H       1  UNL1        0.0000
     32 H          -6.8226    3.8525   -2.6615 H       1  UNL1        0.0000
     33 H          -1.1661    1.0043   -2.8423 H       1  UNL1        0.0000
     34 H          -2.3022    4.2379   -0.2670 H       1  UNL1        0.0000
     35 H          -4.5463    4.2671   -1.2141 H       1  UNL1        0.0000
     36 H          -9.3469    2.9405   -6.2307 H       1  UNL1        0.0000
     37 H          -9.8102    1.7425   -7.4360 H       1  UNL1        0.0000
     38 H          -8.1714    2.4020   -7.4269 H       1  UNL1        0.0000
     39 H         -10.0521    1.3498   -4.3452 H       1  UNL1        0.0000
     40 H          -9.3869   -0.2822   -4.2947 H       1  UNL1        0.0000
     41 H         -10.5421    0.1648   -5.5534 H       1  UNL1        0.0000
     42 H          -9.0306   -0.5630   -7.3271 H       1  UNL1        0.0000
     43 H          -7.8628   -1.1022   -6.1245 H       1  UNL1        0.0000
     44 H          -7.3642   -0.0065   -7.4275 H       1  UNL1        0.0000
     45 H           1.4211    4.0584   -0.5840 H       1  UNL1        0.0000
     46 H          -0.1726    4.8094   -0.5921 H       1  UNL1        0.0000
     47 H           0.5266    4.2230   -2.0988 H       1  UNL1        0.0000
     48 H          -0.8297    1.4038    0.8507 H       1  UNL1        0.0000
     49 H          -0.9756    3.1314    1.1653 H       1  UNL1        0.0000
     50 H           0.6128    2.3698    1.1780 H       1  UNL1        0.0000
     51 H           0.3667    0.5814   -1.2253 H       1  UNL1        0.0000
     52 H           1.7154    1.6567   -0.8730 H       1  UNL1        0.0000
     53 H           0.9244    1.7420   -2.4431 H       1  UNL1        0.0000
     54 H          -1.1881   -2.3625   -4.5200 H       1  UNL1        0.0000
     55 H          -1.1834   -1.3773   -3.0698 H       1  UNL1        0.0000
     56 H          -0.7664   -0.6710   -4.6275 H       1  UNL1        0.0000
     57 H          -4.6203   -1.8205   -6.4069 H       1  UNL1        0.0000
     58 H          -2.9189   -2.1732   -6.6109 H       1  UNL1        0.0000
     59 H          -3.5181   -0.5597   -6.9191 H       1  UNL1        0.0000
     60 H          -4.2985   -4.9873   -3.5772 H       1  UNL1        0.0000
     61 H          -2.9129   -3.9223   -3.3045 H       1  UNL1        0.0000
     62 H          -3.8462   -3.7932   -4.7974 H       1  UNL1        0.0000
     63 H          -5.2658   -4.3229   -1.4262 H       1  UNL1        0.0000
     64 H          -5.6144   -2.6184   -1.0603 H       1  UNL1        0.0000
     65 H          -3.9357   -3.1983   -1.0991 H       1  UNL1        0.0000
     66 H          -6.8543   -2.2355   -3.2581 H       1  UNL1        0.0000
     67 H          -6.6891   -3.9916   -3.4983 H       1  UNL1        0.0000
     68 H          -6.1575   -2.8711   -4.7589 H       1  UNL1        0.0000
@<TRIPOS>BOND
     1    37    17    1
     2    44    19    1
     3    38    17    1
     4    42    19    1
     5    59    25    1
     6    17    36    1
     7    17    16    1
     8    19    43    1
     9    19    16    1
    10    58    25    1
    11    57    25    1
    12    25     1    1
    13    16     9    1
    14    16    18    1
    15    30     8    1
    16    41    18    1
    17     8     9   ar
    18     8     3   ar
    19     9    10   ar
    20    18    39    1
    21    18    40    1
    22    62    27    1
    23    68    29    1
    24    56    24    1
    25    54    24    1
    26     1    24    1
    27     1     4    1
    28     1     2    1
    29     3     4    1
    30     3     7   ar
    31    10    31    1
    32    10    11   ar
    33    24    55    1
    34     4     5    1
    35    27    60    1
    36    27    61    1
    37    27    26    1
    38    29    67    1
    39    29    66    1
    40    29    26    1
    41    11     7   ar
    42    11    32    1
    43     7     6    1
    44     2    26    1
    45    26    28    1
    46     5     6   ar
    47     5    12   ar
    48    33    12    1
    49     6    15   ar
    50    12    13   ar
    51    53    23    1
    52    47    21    1
    53    28    63    1
    54    28    65    1
    55    28    64    1
    56    15    35    1
    57    15    14   ar
    58    13    14   ar
    59    13    20    1
    60    23    51    1
    61    23    52    1
    62    23    20    1
    63    21    20    1
    64    21    46    1
    65    21    45    1
    66    14    34    1
    67    20    22    1
    68    22    48    1
    69    22    49    1
    70    22    50    1
