@<TRIPOS>MOLECULE
4,21,23,24
 29 29 0 0 0
SMALL
GASTEIGER

@<TRIPOS>ATOM
      1 SI         11.2622    1.4496   13.9864 Si      1  UNL1        0.0000
      2 SI         12.2547    4.1042   12.9791 Si      1  UNL1        0.0000
      3 H          11.6427    5.3511   12.4300 H       1  UNL1        0.0000
      4 N          11.0587    3.1672   13.7871 N.3     1  UNL1        0.0000
      5 C          11.2423    0.4163   12.3705 C.3     1  UNL1        0.0000
      6 H          10.5573    0.8392   11.6412 H       1  UNL1        0.0000
      7 H          10.9342   -0.6061   12.5640 H       1  UNL1        0.0000
      8 H          12.2248    0.3799   11.9154 H       1  UNL1        0.0000
      9 C          12.7924    0.9216   15.0125 C.3     1  UNL1        0.0000
     10 H          13.7045    1.1440   14.4693 H       1  UNL1        0.0000
     11 H          12.7817   -0.1437   15.2149 H       1  UNL1        0.0000
     12 H          12.8399    1.4406   15.9648 H       1  UNL1        0.0000
     13 C          13.0826    3.2414   11.4937 C.3     1  UNL1        0.0000
     14 H          13.7112    2.4181   11.8170 H       1  UNL1        0.0000
     15 H          13.7117    3.9378   10.9492 H       1  UNL1        0.0000
     16 H          12.3537    2.8435   10.7963 H       1  UNL1        0.0000
     17 C          13.6953    4.6440   14.1190 C.3     1  UNL1        0.0000
     18 H          13.3909    5.3896   14.8451 H       1  UNL1        0.0000
     19 H          14.5000    5.0730   13.5310 H       1  UNL1        0.0000
     20 H          14.1040    3.8003   14.6662 H       1  UNL1        0.0000
     21 C           9.3228    1.6445   16.1984 C.2     1  UNL1        0.0000
     22 H          10.0304    1.7261   17.0154 H       1  UNL1        0.0000
     23 C           9.6343    1.1708   14.8921 C.3     1  UNL1        0.0000
     24 C           8.3986    1.0349   14.2080 C.2     1  UNL1        0.0000
     25 H           8.2861    0.5725   13.2344 H       1  UNL1        0.0000
     26 C           7.3543    1.3686   15.0872 C.2     1  UNL1        0.0000
     27 H           6.2960    1.2424   14.8973 H       1  UNL1        0.0000
     28 C           7.9250    1.7311   16.3198 C.2     1  UNL1        0.0000
     29 H           7.3779    1.9267   17.2292 H       1  UNL1        0.0000
@<TRIPOS>BOND
     1    16    13    1
     2    15    13    1
     3    13    14    1
     4    13     2    1
     5     6     5    1
     6     8     5    1
     7     5     7    1
     8     5     1    1
     9     3     2    1
    10     2     4    1
    11     2    17    1
    12    25    24    1
    13    19    17    1
    14     4     1    1
    15     1    23    1
    16     1     9    1
    17    17    20    1
    18    17    18    1
    19    24    23    1
    20    24    26    2
    21    10     9    1
    22    23    21    1
    23    27    26    1
    24     9    11    1
    25     9    12    1
    26    26    28    1
    27    21    28    2
    28    21    22    1
    29    28    29    1
