@<TRIPOS>MOLECULE
2,4,7
 44 44 0 0 0
SMALL
GASTEIGER

@<TRIPOS>ATOM
      1 SI          3.9102    9.0360    7.5888 Si      1  UNL1        0.0000
      2 N           4.6051    8.0013    6.3627 N.3     1  UNL1        0.0000
      3 C           5.4514    8.7758    8.6711 C.3     1  UNL1        0.0000
      4 C           6.7310    9.1788    8.1797 C.3     1  UNL1        0.0000
      5 C           7.7329    8.3541    8.7734 C.2     1  UNL1        0.0000
      6 C           7.0796    7.3922    9.5685 C.2     1  UNL1        0.0000
      7 C           5.6768    7.6333    9.4979 C.3     1  UNL1        0.0000
      8 C           7.0139   10.4265    7.3938 C.3     1  UNL1        0.0000
      9 C           9.2026    8.6455    8.7301 C.3     1  UNL1        0.0000
     10 C           7.7299    6.3943   10.4812 C.3     1  UNL1        0.0000
     11 C           4.6837    7.0484   10.4569 C.3     1  UNL1        0.0000
     12 C           4.2091    8.0056    4.9677 C.3     1  UNL1        0.0000
     13 C           4.7364    6.7610    4.2340 C.3     1  UNL1        0.0000
     14 C           4.7916    9.2512    4.2724 C.3     1  UNL1        0.0000
     15 C           2.6791    8.0271    4.8283 C.3     1  UNL1        0.0000
     16 C           2.2361    8.4127    8.2889 C.3     1  UNL1        0.0000
     17 C           3.5647   10.8931    7.2352 C.3     1  UNL1        0.0000
     18 H           6.4579   10.4417    6.4560 H       1  UNL1        0.0000
     19 H           8.0766   10.5064    7.1726 H       1  UNL1        0.0000
     20 H           6.7238   11.3031    7.9757 H       1  UNL1        0.0000
     21 H           9.7671    7.9319    9.3217 H       1  UNL1        0.0000
     22 H           9.3867    9.6387    9.1441 H       1  UNL1        0.0000
     23 H           9.5943    8.6215    7.7140 H       1  UNL1        0.0000
     24 H           8.7981    6.3208   10.2905 H       1  UNL1        0.0000
     25 H           7.3043    5.3952   10.3754 H       1  UNL1        0.0000
     26 H           7.5941    6.6998   11.5206 H       1  UNL1        0.0000
     27 H           3.6694    7.1262   10.0769 H       1  UNL1        0.0000
     28 H           4.7308    7.6074   11.3953 H       1  UNL1        0.0000
     29 H           4.9010    6.0076   10.6935 H       1  UNL1        0.0000
     30 H           5.8181    6.6662    4.3666 H       1  UNL1        0.0000
     31 H           4.5242    6.8447    3.1696 H       1  UNL1        0.0000
     32 H           4.2371    5.8669    4.6039 H       1  UNL1        0.0000
     33 H           5.8754    9.2563    4.3873 H       1  UNL1        0.0000
     34 H           4.3850   10.1531    4.7193 H       1  UNL1        0.0000
     35 H           4.5452    9.2468    3.2133 H       1  UNL1        0.0000
     36 H           2.2425    7.2077    5.3937 H       1  UNL1        0.0000
     37 H           2.3938    7.9251    3.7842 H       1  UNL1        0.0000
     38 H           2.2773    8.9611    5.2083 H       1  UNL1        0.0000
     39 H           1.4181    8.8000    7.6909 H       1  UNL1        0.0000
     40 H           2.0830    8.7669    9.3027 H       1  UNL1        0.0000
     41 H           2.1527    7.3315    8.2886 H       1  UNL1        0.0000
     42 H           2.6996   11.0033    6.5891 H       1  UNL1        0.0000
     43 H           4.3914   11.4200    6.7740 H       1  UNL1        0.0000
     44 H           3.3331   11.4037    8.1647 H       1  UNL1        0.0000
@<TRIPOS>BOND
     1    31    13    1
     2    35    14    1
     3    37    15    1
     4    13    30    1
     5    13    32    1
     6    13    12    1
     7    14    33    1
     8    14    34    1
     9    14    12    1
    10    15    12    1
    11    15    38    1
    12    15    36    1
    13    12     2    1
    14     2     1    1
    15    18     8    1
    16    42    17    1
    17    43    17    1
    18    19     8    1
    19    17     1    1
    20    17    44    1
    21     8    20    1
    22     8     4    1
    23     1    16    1
    24     1     3    1
    25    39    16    1
    26    23     9    1
    27     4     3    1
    28     4     5    1
    29    41    16    1
    30    16    40    1
    31     3     7    1
    32     9     5    1
    33     9    22    1
    34     9    21    1
    35     5     6    2
    36     7     6    1
    37     7    11    1
    38     6    10    1
    39    27    11    1
    40    24    10    1
    41    25    10    1
    42    11    29    1
    43    11    28    1
    44    10    26    1
