@<TRIPOS>MOLECULE
1,2,13,17
 44 46 0 0 0
SMALL
GASTEIGER

@<TRIPOS>ATOM
      1 C           0.1825    1.2837    1.4843 C.3     1  UNL1        0.0000
      2 C           1.1107    1.4714    0.4127 C.ar    1  UNL1        0.0000
      3 C           2.4217    0.9917    0.2186 C.ar    1  UNL1        0.0000
      4 C           3.0748    1.2554   -0.9630 C.ar    1  UNL1        0.0000
      5 C           2.4676    1.9934   -1.9901 C.ar    1  UNL1        0.0000
      6 C           1.1872    2.4778   -1.8437 C.ar    1  UNL1        0.0000
      7 C           0.4984    2.2399   -0.6494 C.ar    1  UNL1        0.0000
      8 C          -0.8405    2.5405   -0.2302 C.ar    1  UNL1        0.0000
      9 C          -1.9122    3.1660   -0.8775 C.ar    1  UNL1        0.0000
     10 C          -3.1281    3.2527   -0.2358 C.ar    1  UNL1        0.0000
     11 C          -3.3019    2.7064    1.0448 C.ar    1  UNL1        0.0000
     12 C          -2.2781    2.0657    1.7022 C.ar    1  UNL1        0.0000
     13 C          -1.0155    1.9533    1.0841 C.ar    1  UNL1        0.0000
     14 SI          0.7222    1.0613    3.2908 Si      1  UNL1        0.0000
     15 C           2.0849   -0.2830    3.4985 C.3     1  UNL1        0.0000
     16 C          -0.6951    0.3909    4.4118 C.3     1  UNL1        0.0000
     17 N           1.1479    2.7180    3.5032 N.3     1  UNL1        0.0000
     18 C           1.9626    3.2769    4.5672 C.3     1  UNL1        0.0000
     19 C           1.5106    2.7874    5.9527 C.3     1  UNL1        0.0000
     20 C           3.4417    2.8876    4.3667 C.3     1  UNL1        0.0000
     21 C           1.8323    4.8144    4.5295 C.3     1  UNL1        0.0000
     22 H           2.8944    0.3833    0.9756 H       1  UNL1        0.0000
     23 H           4.0755    0.8766   -1.1161 H       1  UNL1        0.0000
     24 H           3.0092    2.1648   -2.9082 H       1  UNL1        0.0000
     25 H           0.7082    3.0132   -2.6527 H       1  UNL1        0.0000
     26 H          -1.7904    3.5609   -1.8783 H       1  UNL1        0.0000
     27 H          -3.9640    3.7296   -0.7253 H       1  UNL1        0.0000
     28 H          -4.2756    2.7729    1.5094 H       1  UNL1        0.0000
     29 H          -2.4549    1.5905    2.6565 H       1  UNL1        0.0000
     30 H           2.2044   -0.5352    4.5477 H       1  UNL1        0.0000
     31 H           3.0539    0.0371    3.1310 H       1  UNL1        0.0000
     32 H           1.8159   -1.1959    2.9773 H       1  UNL1        0.0000
     33 H          -1.2553   -0.3920    3.9107 H       1  UNL1        0.0000
     34 H          -1.3942    1.1658    4.7075 H       1  UNL1        0.0000
     35 H          -0.2895   -0.0378    5.3226 H       1  UNL1        0.0000
     36 H           0.4629    3.0272    6.1102 H       1  UNL1        0.0000
     37 H           1.6298    1.7105    6.0234 H       1  UNL1        0.0000
     38 H           2.1033    3.2581    6.7335 H       1  UNL1        0.0000
     39 H           4.0905    3.4766    5.0111 H       1  UNL1        0.0000
     40 H           3.5800    1.8370    4.6037 H       1  UNL1        0.0000
     41 H           3.7264    3.0456    3.3257 H       1  UNL1        0.0000
     42 H           2.0909    5.1935    3.5319 H       1  UNL1        0.0000
     43 H           2.4961    5.2655    5.2661 H       1  UNL1        0.0000
     44 H           0.8086    5.0983    4.7675 H       1  UNL1        0.0000
@<TRIPOS>BOND
     1    24     5    1
     2    25     6    1
     3     5     6   ar
     4     5     4   ar
     5    26     9    1
     6     6     7   ar
     7    23     4    1
     8     4     3   ar
     9     9    10   ar
    10     9     8   ar
    11    27    10    1
    12     7     8    1
    13     7     2   ar
    14    10    11   ar
    15     8    13   ar
    16     3     2   ar
    17     3    22    1
    18     2     1    1
    19    11    28    1
    20    11    12   ar
    21    13     1    1
    22    13    12   ar
    23     1    14    1
    24    12    29    1
    25    32    15    1
    26    31    15    1
    27    14    15    1
    28    14    17    1
    29    14    16    1
    30    41    20    1
    31    15    30    1
    32    17    18    1
    33    42    21    1
    34    33    16    1
    35    20    18    1
    36    20    40    1
    37    20    39    1
    38    16    34    1
    39    16    35    1
    40    21    18    1
    41    21    44    1
    42    21    43    1
    43    18    19    1
    44    19    37    1
    45    19    36    1
    46    19    38    1
