@<TRIPOS>MOLECULE
2,9,10,13
 44 44 0 0 0
SMALL
GASTEIGER

@<TRIPOS>ATOM
      1 SI          4.4509    5.5969    2.1649 Si      1  UNL1        0.0000
      2 N           4.2831    5.2340    3.8486 N.3     1  UNL1        0.0000
      3 C           5.4106    7.2082    1.7497 C.3     1  UNL1        0.0000
      4 C           2.8622    5.7521    1.0906 C.3     1  UNL1        0.0000
      5 C           3.3932    5.8851    4.7981 C.3     1  UNL1        0.0000
      6 C           3.1385    7.3545    4.4417 C.3     1  UNL1        0.0000
      7 C           2.0439    5.1388    4.8407 C.3     1  UNL1        0.0000
      8 C           4.0326    5.8263    6.2009 C.3     1  UNL1        0.0000
      9 C           5.4307    4.0042    1.7840 C.3     1  UNL1        0.0000
     10 C           6.7929    3.8108    2.1769 C.2     1  UNL1        0.0000
     11 C           7.0303    2.4247    2.3402 C.2     1  UNL1        0.0000
     12 C           5.8103    1.7333    2.0725 C.2     1  UNL1        0.0000
     13 C           4.8237    2.7005    1.7462 C.2     1  UNL1        0.0000
     14 C           7.8264    4.9049    2.2428 C.3     1  UNL1        0.0000
     15 C           8.3443    1.7264    2.5577 C.3     1  UNL1        0.0000
     16 C           5.7130    0.2356    1.9676 C.3     1  UNL1        0.0000
     17 C           3.4360    2.4147    1.2282 C.3     1  UNL1        0.0000
     18 H           5.8795    7.1473    0.7739 H       1  UNL1        0.0000
     19 H           4.7341    8.0559    1.7317 H       1  UNL1        0.0000
     20 H           6.1846    7.4238    2.4775 H       1  UNL1        0.0000
     21 H           2.0563    5.1161    1.4398 H       1  UNL1        0.0000
     22 H           3.0579    5.4956    0.0553 H       1  UNL1        0.0000
     23 H           2.4989    6.7746    1.1059 H       1  UNL1        0.0000
     24 H           2.6181    7.4219    3.4922 H       1  UNL1        0.0000
     25 H           4.0846    7.8797    4.3540 H       1  UNL1        0.0000
     26 H           2.5353    7.8338    5.2094 H       1  UNL1        0.0000
     27 H           1.3786    5.5789    5.5806 H       1  UNL1        0.0000
     28 H           1.5673    5.1942    3.8649 H       1  UNL1        0.0000
     29 H           2.2075    4.0866    5.0943 H       1  UNL1        0.0000
     30 H           4.2308    4.7859    6.4860 H       1  UNL1        0.0000
     31 H           3.3714    6.2704    6.9428 H       1  UNL1        0.0000
     32 H           4.9712    6.3800    6.1989 H       1  UNL1        0.0000
     33 H           7.6350    5.5989    3.0652 H       1  UNL1        0.0000
     34 H           7.8156    5.4795    1.3175 H       1  UNL1        0.0000
     35 H           8.8260    4.4920    2.3676 H       1  UNL1        0.0000
     36 H           8.2660    0.9779    3.3479 H       1  UNL1        0.0000
     37 H           9.1321    2.4266    2.8287 H       1  UNL1        0.0000
     38 H           8.6541    1.2118    1.6451 H       1  UNL1        0.0000
     39 H           6.0949   -0.2481    2.8686 H       1  UNL1        0.0000
     40 H           6.3063   -0.1224    1.1231 H       1  UNL1        0.0000
     41 H           4.6857   -0.0893    1.8143 H       1  UNL1        0.0000
     42 H           3.2289    1.3456    1.2303 H       1  UNL1        0.0000
     43 H           2.6662    2.9158    1.8201 H       1  UNL1        0.0000
     44 H           3.3439    2.7703    0.2014 H       1  UNL1        0.0000
@<TRIPOS>BOND
     1    22     4    1
     2    44    17    1
     3    18     3    1
     4     4    23    1
     5     4    21    1
     6     4     1    1
     7    40    16    1
     8    17    42    1
     9    17    13    1
    10    17    43    1
    11    34    14    1
    12    38    15    1
    13    19     3    1
    14    13     9    1
    15    13    12    2
    16     3     1    1
    17     3    20    1
    18     9     1    1
    19     9    10    1
    20    41    16    1
    21    16    12    1
    22    16    39    1
    23    12    11    1
    24     1     2    1
    25    10    14    1
    26    10    11    2
    27    14    35    1
    28    14    33    1
    29    11    15    1
    30    15    37    1
    31    15    36    1
    32    24     6    1
    33     2     5    1
    34    28     7    1
    35    25     6    1
    36     6     5    1
    37     6    26    1
    38     5     7    1
    39     5     8    1
    40     7    29    1
    41     7    27    1
    42    32     8    1
    43     8    30    1
    44     8    31    1
