@<TRIPOS>MOLECULE
1,2,3,31
 79 80 0 0 0
SMALL
GASTEIGER

@<TRIPOS>ATOM
      1 N           5.4379    5.3570   15.9097 N.3     1  UNL1       -0.2956
      2 N           4.8623    4.5937   18.5881 N.3     1  UNL1       -0.2975
      3 N           7.5879    4.2157   17.4592 N.3     1  UNL1       -0.2975
      4 C           4.3583    6.0311   16.6300 C.3     1  UNL1        0.0121
      5 C           4.5455    5.9563   18.1552 C.3     1  UNL1        0.0120
      6 C           6.0678    4.5185   19.4204 C.3     1  UNL1        0.0120
      7 C           7.3738    4.9264   18.7223 C.3     1  UNL1        0.0120
      8 C           7.8709    5.1472   16.3590 C.3     1  UNL1        0.0120
      9 C           6.7026    6.0831   16.0483 C.3     1  UNL1        0.0121
     10 C           5.1110    5.2465   14.4786 C.3     1  UNL1        0.0278
     11 C           3.9014    4.4294   14.0913 C.ar    1  UNL1        0.0138
     12 C           3.2637    4.7447   12.9032 C.ar    1  UNL1       -0.0500
     13 C           2.2671    3.9385   12.3729 C.ar    1  UNL1       -0.0412
     14 C           1.9813    2.7542   13.0422 C.ar    1  UNL1       -0.0507
     15 C           2.5916    2.3884   14.2315 C.ar    1  UNL1        0.0052
     16 C           3.5280    3.2776   14.8101 C.ar    1  UNL1        0.1870
     17 C           2.4365    3.9931   18.5035 C.3     1  UNL1       -0.0497
     18 C           3.4815    4.4943   20.7124 C.3     1  UNL1       -0.0497
     19 C           8.6925    3.2112   17.5274 C.3     1  UNL1        0.0049
     20 C           8.5938    2.2778   18.7331 C.3     1  UNL1       -0.0497
     21 C          10.0944    3.8408   17.5188 C.3     1  UNL1       -0.0497
     22 C           1.5874    4.3410   11.0723 C.3     1  UNL1       -0.0127
     23 C           2.6394    4.3806    9.9549 C.3     1  UNL1       -0.0560
     24 C           0.9536    5.7295   11.2388 C.3     1  UNL1       -0.0560
     25 C           3.7369    3.9377   19.3027 C.3     1  UNL1        0.0049
     26 C           0.4832    3.3664   10.6537 C.3     1  UNL1       -0.0560
     27 C           2.3651    1.0185   14.8652 C.3     1  UNL1       -0.0090
     28 C           1.3396    0.1758   14.0981 C.3     1  UNL1       -0.0559
     29 C           1.8784    1.1487   16.3156 C.3     1  UNL1       -0.0559
     30 C           3.7078    0.2700   14.8512 C.3     1  UNL1       -0.0559
     31 O           4.0250    3.0876   16.0130 O.3     1  UNL1       -0.2873
     32 H           4.2862    7.0907   16.3243 H       1  UNL1        0.0439
     33 H           3.4219    5.5391   16.3544 H       1  UNL1        0.0439
     34 H           5.3364    6.6452   18.4713 H       1  UNL1        0.0439
     35 H           3.6245    6.3232   18.6212 H       1  UNL1        0.0439
     36 H           5.9764    5.1571   20.3158 H       1  UNL1        0.0439
     37 H           6.1584    3.4764   19.7422 H       1  UNL1        0.0439
     38 H           8.1851    4.7248   19.4301 H       1  UNL1        0.0439
     39 H           7.3866    6.0087   18.5553 H       1  UNL1        0.0439
     40 H           8.7460    5.7786   16.5807 H       1  UNL1        0.0439
     41 H           8.0695    4.5303   15.4774 H       1  UNL1        0.0439
     42 H           6.6074    6.8427   16.8300 H       1  UNL1        0.0439
     43 H           6.9436    6.6271   15.1235 H       1  UNL1        0.0439
     44 H           4.9950    6.2623   14.0576 H       1  UNL1        0.0477
     45 H           5.9749    4.7577   14.0087 H       1  UNL1        0.0477
     46 H           3.5769    5.6362   12.3780 H       1  UNL1        0.0625
     47 H           1.2580    2.0857   12.6138 H       1  UNL1        0.0625
     48 H           1.7328    3.2823   18.9295 H       1  UNL1        0.0245
     49 H           1.9728    4.9781   18.5326 H       1  UNL1        0.0245
     50 H           2.6194    3.7060   17.4722 H       1  UNL1        0.0245
     51 H           2.5549    4.0720   21.0914 H       1  UNL1        0.0245
     52 H           4.2722    4.2252   21.4074 H       1  UNL1        0.0245
     53 H           3.3754    5.5785   20.7048 H       1  UNL1        0.0245
     54 H           8.5599    2.6021   16.6221 H       1  UNL1        0.0457
     55 H           9.2878    1.4543   18.5826 H       1  UNL1        0.0245
     56 H           8.8673    2.7709   19.6649 H       1  UNL1        0.0245
     57 H           7.5974    1.8517   18.8198 H       1  UNL1        0.0245
     58 H          10.8237    3.0696   17.7509 H       1  UNL1        0.0245
     59 H          10.1875    4.6220   18.2725 H       1  UNL1        0.0245
     60 H          10.3557    4.2530   16.5484 H       1  UNL1        0.0245
     61 H           2.1727    4.6307    9.0040 H       1  UNL1        0.0238
     62 H           3.4078    5.1196   10.1640 H       1  UNL1        0.0238
     63 H           3.1207    3.4099    9.8620 H       1  UNL1        0.0238
     64 H           0.4572    6.0299   10.3181 H       1  UNL1        0.0238
     65 H           0.2166    5.7110   12.0389 H       1  UNL1        0.0238
     66 H           1.7013    6.4794   11.4814 H       1  UNL1        0.0238
     67 H           4.0251    2.8830   19.3924 H       1  UNL1        0.0457
     68 H           0.0090    3.7251    9.7419 H       1  UNL1        0.0238
     69 H          -0.2809    3.2886   11.4235 H       1  UNL1        0.0238
     70 H           0.8896    2.3785   10.4525 H       1  UNL1        0.0238
     71 H           1.2457   -0.7952   14.5805 H       1  UNL1        0.0238
     72 H           0.3597    0.6490   14.0995 H       1  UNL1        0.0238
     73 H           1.6559    0.0057   13.0718 H       1  UNL1        0.0238
     74 H           1.5409    0.1803   16.6801 H       1  UNL1        0.0238
     75 H           2.6902    1.4831   16.9566 H       1  UNL1        0.0238
     76 H           1.0485    1.8509   16.3818 H       1  UNL1        0.0238
     77 H           3.6085   -0.6814   15.3707 H       1  UNL1        0.0238
     78 H           4.4884    0.8583   15.3411 H       1  UNL1        0.0238
     79 H           4.0232    0.0779   13.8277 H       1  UNL1        0.0238
@<TRIPOS>BOND
     1    61    23    1
     2    68    26    1
     3    63    23    1
     4    23    62    1
     5    23    22    1
     6    64    24    1
     7    70    26    1
     8    26    22    1
     9    26    69    1
    10    22    24    1
    11    22    13    1
    12    24    66    1
    13    24    65    1
    14    13    12   ar
    15    13    14   ar
    16    46    12    1
    17    47    14    1
    18    12    11   ar
    19    14    15   ar
    20    73    28    1
    21    79    30    1
    22    45    10    1
    23    44    10    1
    24    11    10    1
    25    11    16   ar
    26    28    72    1
    27    28    71    1
    28    28    27    1
    29    15    16   ar
    30    15    27    1
    31    10     1    1
    32    16    31    1
    33    30    27    1
    34    30    78    1
    35    30    77    1
    36    27    29    1
    37    43     9    1
    38    41     8    1
    39     1     9    1
    40     1     4    1
    41     9     8    1
    42     9    42    1
    43    29    76    1
    44    29    74    1
    45    29    75    1
    46    32     4    1
    47    33     4    1
    48     8    40    1
    49     8     3    1
    50    60    21    1
    51    54    19    1
    52     4     5    1
    53     3    19    1
    54     3     7    1
    55    50    17    1
    56    21    19    1
    57    21    58    1
    58    21    59    1
    59    19    20    1
    60     5    34    1
    61     5     2    1
    62     5    35    1
    63    17    49    1
    64    17    48    1
    65    17    25    1
    66    39     7    1
    67    55    20    1
    68     2    25    1
    69     2     6    1
    70     7     6    1
    71     7    38    1
    72    20    57    1
    73    20    56    1
    74    25    67    1
    75    25    18    1
    76     6    37    1
    77     6    36    1
    78    53    18    1
    79    18    51    1
    80    18    52    1
