@<TRIPOS>MOLECULE
1,4,5,6,7
 28 28 0 0 0
SMALL
GASTEIGER

@<TRIPOS>ATOM
      1 S           3.5961    2.3231   10.8699 S.3     1  UNL1        0.0000
      2 SI          8.0803    2.5667   11.1239 Si      1  UNL1        0.0000
      3 O           4.4141    0.6147   13.1183 O.3     1  UNL1        0.0000
      4 C           5.2139    2.1062   11.5488 C.3     1  UNL1        0.0000
      5 C           6.2326    2.5061   10.6997 C.2     1  UNL1        0.0000
      6 C           5.7048    2.8228    9.4136 C.2     1  UNL1        0.0000
      7 C           4.3324    2.6854    9.3241 C.3     1  UNL1        0.0000
      8 C           5.2571    1.7451   12.9987 C.3     1  UNL1        0.0000
      9 C           4.7755    2.9019   13.8832 C.3     1  UNL1        0.0000
     10 C           8.3411    3.8328   12.5347 C.3     1  UNL1        0.0000
     11 C           9.0039    3.1473    9.5618 C.3     1  UNL1        0.0000
     12 C           8.6888    0.8327   11.6218 C.3     1  UNL1        0.0000
     13 H           6.3075    3.2079    8.6037 H       1  UNL1        0.0000
     14 H           3.6988    3.0116    8.5142 H       1  UNL1        0.0000
     15 H           6.2911    1.4828   13.2739 H       1  UNL1        0.0000
     16 H           4.8437    2.6302   14.9349 H       1  UNL1        0.0000
     17 H           5.3845    3.7854   13.7086 H       1  UNL1        0.0000
     18 H           3.7376    3.1331   13.6492 H       1  UNL1        0.0000
     19 H           9.4018    4.0062   12.6842 H       1  UNL1        0.0000
     20 H           7.8842    4.7927   12.3111 H       1  UNL1        0.0000
     21 H           7.9345    3.4848   13.4790 H       1  UNL1        0.0000
     22 H          10.0709    3.1992    9.7528 H       1  UNL1        0.0000
     23 H           8.8554    2.4532    8.7399 H       1  UNL1        0.0000
     24 H           8.6869    4.1331    9.2338 H       1  UNL1        0.0000
     25 H           9.7649    0.8268   11.7654 H       1  UNL1        0.0000
     26 H           8.2372    0.4773   12.5426 H       1  UNL1        0.0000
     27 H           8.4517    0.1070   10.8486 H       1  UNL1        0.0000
     28 H           4.4332    0.2770   14.0197 H       1  UNL1        0.0000
@<TRIPOS>BOND
     1    14     7    1
     2    13     6    1
     3    23    11    1
     4    24    11    1
     5     7     6    1
     6     7     1    1
     7     6     5    2
     8    11    22    1
     9    11     2    1
    10     5     2    1
    11     5     4    1
    12    27    12    1
    13     1     4    1
    14     2    12    1
    15     2    10    1
    16     4     8    1
    17    12    25    1
    18    12    26    1
    19    20    10    1
    20    10    19    1
    21    10    21    1
    22     8     3    1
    23     8    15    1
    24     8     9    1
    25     3    28    1
    26    18     9    1
    27    17     9    1
    28     9    16    1
