@<TRIPOS>MOLECULE
1,2,3,4,5
 48 48 0 0 0
SMALL
GASTEIGER

@<TRIPOS>ATOM
      1 S          14.0650   -0.6318    5.7442 S.3     1  UNL1        0.0000
      2 C          14.1465    0.0511    4.1235 C.3     1  UNL1        0.0000
      3 C          15.4391    0.4490    3.8336 C.3     1  UNL1        0.0000
      4 C          16.3737    0.3177    4.9038 C.3     1  UNL1        0.0000
      5 C          15.7446   -0.1468    6.0494 C.3     1  UNL1        0.0000
      6 C          16.3404   -0.5527    7.3554 C.3     1  UNL1        0.0000
      7 SI         12.6728   -0.0672    2.9525 Si      1  UNL1        0.0000
      8 C          12.7730    1.4515    1.8078 C.3     1  UNL1        0.0000
      9 C          11.0956   -0.0464    4.0176 C.3     1  UNL1        0.0000
     10 C          12.8273   -1.7307    1.9922 C.3     1  UNL1        0.0000
     11 C          11.7470   -1.8331    0.9192 C.3     1  UNL1        0.0000
     12 C          14.2081   -1.9128    1.3634 C.3     1  UNL1        0.0000
     13 SI         18.1951    0.8025    4.6949 Si      1  UNL1        0.0000
     14 C          18.3013    2.0128    3.2258 C.3     1  UNL1        0.0000
     15 C          18.8447    1.7085    6.2427 C.3     1  UNL1        0.0000
     16 C          19.1992   -0.7981    4.2989 C.3     1  UNL1        0.0000
     17 C          18.7566   -1.4299    2.9792 C.3     1  UNL1        0.0000
     18 C          19.1207   -1.8392    5.4136 C.3     1  UNL1        0.0000
     19 H          15.7278    0.7631    2.8408 H       1  UNL1        0.0000
     20 H          15.6589   -0.3176    8.1737 H       1  UNL1        0.0000
     21 H          17.2775   -0.0305    7.5249 H       1  UNL1        0.0000
     22 H          16.5330   -1.6283    7.3807 H       1  UNL1        0.0000
     23 H          13.6095    1.3909    1.1182 H       1  UNL1        0.0000
     24 H          11.8689    1.5498    1.2162 H       1  UNL1        0.0000
     25 H          12.8897    2.3626    2.3889 H       1  UNL1        0.0000
     26 H          10.2020   -0.0815    3.4033 H       1  UNL1        0.0000
     27 H          11.0582   -0.8901    4.7013 H       1  UNL1        0.0000
     28 H          11.0487    0.8620    4.6107 H       1  UNL1        0.0000
     29 H          12.6737   -2.5574    2.6952 H       1  UNL1        0.0000
     30 H          11.8063   -2.7910    0.4042 H       1  UNL1        0.0000
     31 H          10.7564   -1.7435    1.3572 H       1  UNL1        0.0000
     32 H          11.8674   -1.0442    0.1809 H       1  UNL1        0.0000
     33 H          14.2687   -2.8686    0.8449 H       1  UNL1        0.0000
     34 H          14.4074   -1.1253    0.6401 H       1  UNL1        0.0000
     35 H          14.9891   -1.8888    2.1207 H       1  UNL1        0.0000
     36 H          19.3235    2.3499    3.0855 H       1  UNL1        0.0000
     37 H          17.9761    1.5726    2.2887 H       1  UNL1        0.0000
     38 H          17.6896    2.8902    3.4108 H       1  UNL1        0.0000
     39 H          19.2395    1.0376    6.9990 H       1  UNL1        0.0000
     40 H          19.6485    2.3825    5.9654 H       1  UNL1        0.0000
     41 H          18.0602    2.3093    6.6956 H       1  UNL1        0.0000
     42 H          20.2489   -0.5073    4.1915 H       1  UNL1        0.0000
     43 H          19.3451   -2.3212    2.7664 H       1  UNL1        0.0000
     44 H          17.7090   -1.7226    3.0247 H       1  UNL1        0.0000
     45 H          18.8837   -0.7359    2.1528 H       1  UNL1        0.0000
     46 H          19.7615   -2.6901    5.1863 H       1  UNL1        0.0000
     47 H          19.4393   -1.4216    6.3653 H       1  UNL1        0.0000
     48 H          18.1023   -2.2066    5.5195 H       1  UNL1        0.0000
@<TRIPOS>BOND
     1    32    11    1
     2    30    11    1
     3    34    12    1
     4    33    12    1
     5    11    31    1
     6    11    10    1
     7    23     8    1
     8    24     8    1
     9    12    10    1
    10    12    35    1
    11     8    25    1
    12     8     7    1
    13    10    29    1
    14    10     7    1
    15    45    17    1
    16    37    14    1
    17    43    17    1
    18    19     3    1
    19     7     9    1
    20     7     2    1
    21    17    44    1
    22    17    16    1
    23    36    14    1
    24    14    38    1
    25    14    13    1
    26    26     9    1
    27     3     2    1
    28     3     4    1
    29     9    28    1
    30     9    27    1
    31     2     1    1
    32    42    16    1
    33    16    13    1
    34    16    18    1
    35    13     4    1
    36    13    15    1
    37     4     5    1
    38    46    18    1
    39    18    48    1
    40    18    47    1
    41     1     5    1
    42    40    15    1
    43     5     6    1
    44    15    41    1
    45    15    39    1
    46     6    22    1
    47     6    21    1
    48     6    20    1
