@<TRIPOS>MOLECULE
2,3,4,5
 35 35 0 0 0
SMALL
GASTEIGER

@<TRIPOS>ATOM
      1 SI          7.1066    8.9197    0.4601 Si      1  UNL1        0.0000
      2 N           7.8120   10.3489    1.2760 N.3     1  UNL1        0.0000
      3 B           8.4945   11.1714    0.2721 B       1  UNL1        0.0000
      4 C           9.0426   10.2341   -0.8341 C.3     1  UNL1        0.0000
      5 C           8.6150    8.9017   -0.6730 C.3     1  UNL1        0.0000
      6 C           5.4828    9.4390   -0.4124 C.3     1  UNL1        0.0000
      7 H           5.1042    8.6372   -1.0385 H       1  UNL1        0.0000
      8 H           5.6362   10.3096   -1.0440 H       1  UNL1        0.0000
      9 H           4.7046    9.6815    0.3065 H       1  UNL1        0.0000
     10 C           6.7458    7.4971    1.6649 C.3     1  UNL1        0.0000
     11 H           7.5995    7.2442    2.2825 H       1  UNL1        0.0000
     12 H           6.4646    6.6108    1.1084 H       1  UNL1        0.0000
     13 H           5.9167    7.7449    2.3193 H       1  UNL1        0.0000
     14 C           7.1798   10.8988    2.4570 C.3     1  UNL1        0.0000
     15 H           7.0359   10.1182    3.2047 H       1  UNL1        0.0000
     16 H           6.2002   11.3201    2.2107 H       1  UNL1        0.0000
     17 H           7.7916   11.6865    2.8959 H       1  UNL1        0.0000
     18 C           8.4803   12.7661    0.2846 C.3     1  UNL1        0.0000
     19 H           9.2778   13.1675   -0.3438 H       1  UNL1        0.0000
     20 H           8.6485   13.1686    1.2862 H       1  UNL1        0.0000
     21 C           7.1440   13.3218   -0.2281 C.3     1  UNL1        0.0000
     22 H           7.1522   14.4103   -0.2284 H       1  UNL1        0.0000
     23 H           6.3202   12.9886    0.3995 H       1  UNL1        0.0000
     24 H           6.9525   12.9828   -1.2441 H       1  UNL1        0.0000
     25 C           9.8533   10.6809   -2.0253 C.3     1  UNL1        0.0000
     26 H          10.5437    9.9017   -2.3524 H       1  UNL1        0.0000
     27 H          10.4447   11.5586   -1.7593 H       1  UNL1        0.0000
     28 C           8.9185   11.0404   -3.1822 C.3     1  UNL1        0.0000
     29 H           9.4914   11.3609   -4.0495 H       1  UNL1        0.0000
     30 H           8.2531   11.8488   -2.8900 H       1  UNL1        0.0000
     31 H           8.3133   10.1825   -3.4651 H       1  UNL1        0.0000
     32 C           8.9446    7.7820   -1.6175 C.3     1  UNL1        0.0000
     33 H           8.8015    6.8208   -1.1301 H       1  UNL1        0.0000
     34 H           9.9710    7.8361   -1.9726 H       1  UNL1        0.0000
     35 H           8.2820    7.8173   -2.4842 H       1  UNL1        0.0000
@<TRIPOS>BOND
     1    29    28    1
     2    31    28    1
     3    28    30    1
     4    28    25    1
     5    35    32    1
     6    26    25    1
     7    25    27    1
     8    25     4    1
     9    34    32    1
    10    32    33    1
    11    32     5    1
    12    24    21    1
    13     8     6    1
    14     7     6    1
    15     4     5    1
    16     4     3    1
    17     5     1    1
    18     6     9    1
    19     6     1    1
    20    19    18    1
    21    22    21    1
    22    21    18    1
    23    21    23    1
    24     3    18    1
    25     3     2    1
    26    18    20    1
    27     1     2    1
    28     1    10    1
    29    12    10    1
    30     2    14    1
    31    10    11    1
    32    10    13    1
    33    16    14    1
    34    14    17    1
    35    14    15    1
