@<TRIPOS>MOLECULE
2,3,4,13
 35 35 0 0 0
SMALL
GASTEIGER

@<TRIPOS>ATOM
      1 SI         10.2108    4.2839    1.5752 Si      1  UNL1        0.0000
      2 N           9.3535    5.8540    1.4406 N.3     1  UNL1        0.0000
      3 C           8.8395    5.1720    3.7408 C.2     1  UNL1        0.0000
      4 C           9.8949    4.2985    3.4487 C.3     1  UNL1        0.0000
      5 C           8.0734    5.1224    5.0356 C.3     1  UNL1        0.0000
      6 C           6.9401    4.1000    4.9202 C.3     1  UNL1        0.0000
      7 C          10.4166    3.2415    4.3742 C.3     1  UNL1        0.0000
      8 C          12.0071    4.3812    0.9571 C.3     1  UNL1        0.0000
      9 C           9.2125    2.9665    0.6236 C.3     1  UNL1        0.0000
     10 C           7.2557    7.1325    2.4883 C.3     1  UNL1        0.0000
     11 C           7.7462    8.4816    3.0368 C.3     1  UNL1        0.0000
     12 C           9.3205    6.5575    0.1768 C.3     1  UNL1        0.0000
     13 B           8.4244    6.0538    2.5141 B       1  UNL1        0.0000
     14 H           8.7160    4.8474    5.8740 H       1  UNL1        0.0000
     15 H           7.6454    6.1036    5.2466 H       1  UNL1        0.0000
     16 H           7.3412    3.1062    4.7356 H       1  UNL1        0.0000
     17 H           6.2794    4.3606    4.0964 H       1  UNL1        0.0000
     18 H           6.3564    4.0723    5.8376 H       1  UNL1        0.0000
     19 H          10.3332    3.5283    5.4199 H       1  UNL1        0.0000
     20 H          11.4596    3.0232    4.1549 H       1  UNL1        0.0000
     21 H           9.8508    2.3196    4.2309 H       1  UNL1        0.0000
     22 H          12.5100    5.2837    1.2933 H       1  UNL1        0.0000
     23 H          12.0383    4.3642   -0.1279 H       1  UNL1        0.0000
     24 H          12.5776    3.5300    1.3124 H       1  UNL1        0.0000
     25 H           9.2358    3.1530   -0.4456 H       1  UNL1        0.0000
     26 H           8.1730    2.9424    0.9368 H       1  UNL1        0.0000
     27 H           9.6345    1.9816    0.7910 H       1  UNL1        0.0000
     28 H           6.4037    6.8110    3.0926 H       1  UNL1        0.0000
     29 H           6.8734    7.2895    1.4761 H       1  UNL1        0.0000
     30 H           8.5990    8.8446    2.4679 H       1  UNL1        0.0000
     31 H           8.0602    8.3789    4.0732 H       1  UNL1        0.0000
     32 H           6.9575    9.2307    2.9880 H       1  UNL1        0.0000
     33 H          10.3232    6.6124   -0.2485 H       1  UNL1        0.0000
     34 H           8.9549    7.5750    0.3056 H       1  UNL1        0.0000
     35 H           8.6703    6.0410   -0.5371 H       1  UNL1        0.0000
@<TRIPOS>BOND
     1    35    12    1
     2    25     9    1
     3    33    12    1
     4    23     8    1
     5    12    34    1
     6    12     2    1
     7     9    27    1
     8     9    26    1
     9     9     1    1
    10     8    22    1
    11     8    24    1
    12     8     1    1
    13     2     1    1
    14     2    13    1
    15    29    10    1
    16     1     4    1
    17    30    11    1
    18    10    13    1
    19    10    11    1
    20    10    28    1
    21    13     3    2
    22    32    11    1
    23    11    31    1
    24     4     3    1
    25     4     7    1
    26     3     5    1
    27    17     6    1
    28    20     7    1
    29    21     7    1
    30     7    19    1
    31    16     6    1
    32     6     5    1
    33     6    18    1
    34     5    15    1
    35     5    14    1
