@<TRIPOS>MOLECULE
2,3,4,12
 38 38 0 0 0
SMALL
GASTEIGER

@<TRIPOS>ATOM
      1 N          -2.2324    0.7419    4.2619 N.3     1  UNL1        0.0000
      2 N          -0.2992   -0.3921    3.8301 N.3     1  UNL1        0.0000
      3 B          -1.5942    2.0065    3.7030 B       1  UNL1        0.0000
      4 C          -0.9025    3.0297    4.5687 C.3     1  UNL1        0.0000
      5 H          -0.8874    3.0113    5.6569 H       1  UNL1        0.0000
      6 C          -0.3603    4.1673    3.9671 C.2     1  UNL1        0.0000
      7 H           0.0686    4.9529    4.5824 H       1  UNL1        0.0000
      8 C          -0.4174    4.3770    2.5918 C.2     1  UNL1        0.0000
      9 H          -0.0200    5.2943    2.1786 H       1  UNL1        0.0000
     10 C          -1.0228    3.4531    1.7417 C.2     1  UNL1        0.0000
     11 H          -1.0933    3.7038    0.6869 H       1  UNL1        0.0000
     12 C          -1.5841    2.2701    2.2178 C.2     1  UNL1        0.0000
     13 H          -2.0966    1.6468    1.4855 H       1  UNL1        0.0000
     14 C          -1.5444   -0.4042    4.2508 C.3     1  UNL1        0.0000
     15 C          -2.2703   -1.6450    4.7315 C.3     1  UNL1        0.0000
     16 H          -1.6454   -2.5291    4.7093 H       1  UNL1        0.0000
     17 H          -3.1316   -1.8339    4.0917 H       1  UNL1        0.0000
     18 H          -2.6188   -1.5053    5.7528 H       1  UNL1        0.0000
     19 C          -3.5569    0.8709    4.8538 C.3     1  UNL1        0.0000
     20 H          -4.0826   -0.0877    4.8046 H       1  UNL1        0.0000
     21 C          -3.4439    1.2951    6.3225 C.3     1  UNL1        0.0000
     22 H          -2.7966    0.6170    6.8746 H       1  UNL1        0.0000
     23 H          -4.4260    1.2965    6.7894 H       1  UNL1        0.0000
     24 H          -3.0268    2.2958    6.3857 H       1  UNL1        0.0000
     25 C          -4.3930    1.8860    4.0761 C.3     1  UNL1        0.0000
     26 H          -3.9471    2.8744    4.1350 H       1  UNL1        0.0000
     27 H          -5.3974    1.9254    4.4913 H       1  UNL1        0.0000
     28 H          -4.4586    1.6014    3.0296 H       1  UNL1        0.0000
     29 C           0.4485   -1.6457    3.7468 C.3     1  UNL1        0.0000
     30 H           0.2196   -2.2981    4.6030 H       1  UNL1        0.0000
     31 C           1.9525   -1.3745    3.8080 C.3     1  UNL1        0.0000
     32 H           2.2724   -0.7786    2.9495 H       1  UNL1        0.0000
     33 H           2.4905   -2.3207    3.7956 H       1  UNL1        0.0000
     34 H           2.2032   -0.8444    4.7259 H       1  UNL1        0.0000
     35 C           0.1047   -2.3817    2.4459 C.3     1  UNL1        0.0000
     36 H          -0.9546   -2.6238    2.4019 H       1  UNL1        0.0000
     37 H           0.6767   -3.3031    2.3681 H       1  UNL1        0.0000
     38 H           0.3453   -1.7450    1.5962 H       1  UNL1        0.0000
@<TRIPOS>BOND
     1    11    10    1
     2    13    12    1
     3    38    35    1
     4    10    12    2
     5    10     8    1
     6     9     8    1
     7    12     3    1
     8    37    35    1
     9    36    35    1
    10    35    29    1
    11     8     6    2
    12    32    31    1
    13    28    25    1
    14     3     1    1
    15     3     4    1
    16    29    31    1
    17    29     2    1
    18    29    30    1
    19    33    31    1
    20    31    34    1
    21     2    14    1
    22     6     4    1
    23     6     7    1
    24    25    26    1
    25    25    27    1
    26    25    19    1
    27    17    15    1
    28    14     1    1
    29    14    15    1
    30     1    19    1
    31     4     5    1
    32    16    15    1
    33    15    18    1
    34    20    19    1
    35    19    21    1
    36    21    24    1
    37    21    23    1
    38    21    22    1
