@<TRIPOS>MOLECULE
2,4,12
 38 38 0 0 0
SMALL
GASTEIGER

@<TRIPOS>ATOM
      1 N           4.8216    1.2652   18.7017 N.3     1  UNL1        0.0000
      2 N           4.2727    2.1381   16.6621 N.3     1  UNL1        0.0000
      3 B           4.9564    2.6461   19.3267 B       1  UNL1        0.0000
      4 C           6.2040    3.4673   19.0838 C.2     1  UNL1        0.0000
      5 H           7.0358    3.1305   18.4657 H       1  UNL1        0.0000
      6 C           6.3825    4.6630   19.7765 C.2     1  UNL1        0.0000
      7 H           7.3058    5.2244   19.6644 H       1  UNL1        0.0000
      8 C           5.4343    5.1370   20.6800 C.2     1  UNL1        0.0000
      9 H           5.6344    6.0476   21.2289 H       1  UNL1        0.0000
     10 C           4.2517    4.4438   20.9212 C.2     1  UNL1        0.0000
     11 H           3.5713    4.8436   21.6679 H       1  UNL1        0.0000
     12 C           3.9512    3.2403   20.2843 C.3     1  UNL1        0.0000
     13 H           3.0278    2.7542   20.5924 H       1  UNL1        0.0000
     14 C           4.6183    1.1029   17.3868 C.3     1  UNL1        0.0000
     15 C           4.8054   -0.2950   16.8272 C.3     1  UNL1        0.0000
     16 H           4.7123   -0.3252   15.7487 H       1  UNL1        0.0000
     17 H           4.0690   -0.9762   17.2491 H       1  UNL1        0.0000
     18 H           5.8019   -0.6564   17.0767 H       1  UNL1        0.0000
     19 C           4.9471    0.1292   19.6093 C.3     1  UNL1        0.0000
     20 H           5.3732   -0.7253   19.0757 H       1  UNL1        0.0000
     21 C           5.8962    0.4451   20.7643 C.3     1  UNL1        0.0000
     22 H           6.8591    0.7735   20.3830 H       1  UNL1        0.0000
     23 H           6.0434   -0.4491   21.3657 H       1  UNL1        0.0000
     24 H           5.4932    1.2318   21.3940 H       1  UNL1        0.0000
     25 C           3.5700   -0.2776   20.1460 C.3     1  UNL1        0.0000
     26 H           3.1750    0.5040   20.7874 H       1  UNL1        0.0000
     27 H           3.6494   -1.1948   20.7249 H       1  UNL1        0.0000
     28 H           2.8691   -0.4391   19.3298 H       1  UNL1        0.0000
     29 C           4.1516    2.0301   15.2122 C.3     1  UNL1        0.0000
     30 H           3.7795    1.0405   14.9081 H       1  UNL1        0.0000
     31 C           3.1288    3.0384   14.6819 C.3     1  UNL1        0.0000
     32 H           2.1605    2.8730   15.1507 H       1  UNL1        0.0000
     33 H           3.0175    2.9056   13.6068 H       1  UNL1        0.0000
     34 H           3.4523    4.0669   14.8714 H       1  UNL1        0.0000
     35 C           5.5211    2.2701   14.5652 C.3     1  UNL1        0.0000
     36 H           5.9000    3.2464   14.8653 H       1  UNL1        0.0000
     37 H           5.4424    2.2386   13.4810 H       1  UNL1        0.0000
     38 H           6.2337    1.5133   14.8862 H       1  UNL1        0.0000
@<TRIPOS>BOND
     1    37    35    1
     2    33    31    1
     3    35    36    1
     4    35    38    1
     5    35    29    1
     6    31    34    1
     7    31    32    1
     8    31    29    1
     9    30    29    1
    10    29     2    1
    11    16    15    1
    12     2    14    1
    13    15    18    1
    14    15    17    1
    15    15    14    1
    16    14     1    1
    17     5     4    1
    18     1     3    1
    19     1    19    1
    20    20    19    1
    21     4     3    1
    22     4     6    2
    23     3    12    1
    24    28    25    1
    25    19    25    1
    26    19    21    1
    27     7     6    1
    28     6     8    1
    29    25    27    1
    30    25    26    1
    31    12    13    1
    32    12    10    1
    33    22    21    1
    34     8    10    2
    35     8     9    1
    36    21    23    1
    37    21    24    1
    38    10    11    1
