@<TRIPOS>MOLECULE
2,4,10
 58 60 0 0 0
SMALL
GASTEIGER

@<TRIPOS>ATOM
      1 N           9.6782    9.0745   12.3375 N.3     1  UNL1        0.0000
      2 N          10.7845    7.7127   10.8641 N.3     1  UNL1        0.0000
      3 B          10.9762    9.6798   12.8658 B       1  UNL1        0.0000
      4 C          11.4772   11.0301   12.4076 C.2     1  UNL1        0.0000
      5 H          10.9713   11.6487   11.6669 H       1  UNL1        0.0000
      6 C          12.5977   11.5952   13.0223 C.2     1  UNL1        0.0000
      7 C          13.2631   10.9247   14.0514 C.2     1  UNL1        0.0000
      8 H          14.1007   11.4184   14.5290 H       1  UNL1        0.0000
      9 C          12.8774    9.6648   14.5091 C.2     1  UNL1        0.0000
     10 C          11.7846    9.0035   13.9430 C.3     1  UNL1        0.0000
     11 H          11.5039    8.0594   14.4054 H       1  UNL1        0.0000
     12 C          13.6107    9.0459   15.6712 C.3     1  UNL1        0.0000
     13 H          12.9864    9.0799   16.5649 H       1  UNL1        0.0000
     14 H          14.5358    9.5775   15.8833 H       1  UNL1        0.0000
     15 H          13.8477    8.0031   15.4666 H       1  UNL1        0.0000
     16 C          13.1020   12.9556   12.6088 C.3     1  UNL1        0.0000
     17 H          13.3702   13.5498   13.4811 H       1  UNL1        0.0000
     18 H          12.3488   13.4958   12.0387 H       1  UNL1        0.0000
     19 H          13.9926   12.8541   11.9859 H       1  UNL1        0.0000
     20 C           8.2932    7.6786   10.8964 C.3     1  UNL1        0.0000
     21 H           8.3628    7.0893    9.9896 H       1  UNL1        0.0000
     22 H           7.6475    8.5288   10.6901 H       1  UNL1        0.0000
     23 H           7.8247    7.0606   11.6616 H       1  UNL1        0.0000
     24 C           9.6546    8.1551   11.3659 C.3     1  UNL1        0.0000
     25 C           8.4583    9.6007   12.9372 C.3     1  UNL1        0.0000
     26 H           7.6489    8.8727   12.8290 H       1  UNL1        0.0000
     27 C           8.6326    9.8390   14.4399 C.3     1  UNL1        0.0000
     28 H           9.4077   10.5874   14.6033 H       1  UNL1        0.0000
     29 H           8.9547    8.9141   14.9198 H       1  UNL1        0.0000
     30 C           7.3162   10.3173   15.0469 C.3     1  UNL1        0.0000
     31 H           6.5504    9.5475   14.9193 H       1  UNL1        0.0000
     32 H           7.4457   10.4825   16.1180 H       1  UNL1        0.0000
     33 C           6.8536   11.6068   14.3758 C.3     1  UNL1        0.0000
     34 H           5.9012   11.9290   14.8017 H       1  UNL1        0.0000
     35 H           7.5888   12.3922   14.5623 H       1  UNL1        0.0000
     36 C           6.7083   11.4012   12.8713 C.3     1  UNL1        0.0000
     37 H           5.9237   10.6642   12.6795 H       1  UNL1        0.0000
     38 H           6.4089   12.3368   12.3944 H       1  UNL1        0.0000
     39 C           8.0253   10.9154   12.2742 C.3     1  UNL1        0.0000
     40 H           8.7997   11.6627   12.4463 H       1  UNL1        0.0000
     41 H           7.9236   10.7784   11.1950 H       1  UNL1        0.0000
     42 C          10.7783    6.6167    9.8984 C.3     1  UNL1        0.0000
     43 H          10.0174    6.7753    9.1169 H       1  UNL1        0.0000
     44 C          10.5082    5.2725   10.5945 C.3     1  UNL1        0.0000
     45 H          11.2852    5.1108   11.3435 H       1  UNL1        0.0000
     46 H           9.5492    5.3050   11.1134 H       1  UNL1        0.0000
     47 C          10.5197    4.1209    9.5945 C.3     1  UNL1        0.0000
     48 H           9.7213    4.2637    8.8614 H       1  UNL1        0.0000
     49 H          10.3274    3.1811   10.1161 H       1  UNL1        0.0000
     50 C          11.8622    4.0542    8.8750 C.3     1  UNL1        0.0000
     51 H          12.6528    3.8526    9.6007 H       1  UNL1        0.0000
     52 H          11.8568    3.2407    8.1470 H       1  UNL1        0.0000
     53 C          12.1451    5.3793    8.1756 C.3     1  UNL1        0.0000
     54 H          11.3882    5.5528    7.4064 H       1  UNL1        0.0000
     55 H          13.1182    5.3413    7.6824 H       1  UNL1        0.0000
     56 C          12.1292    6.5328    9.1784 C.3     1  UNL1        0.0000
     57 H          12.9183    6.3693    9.9244 H       1  UNL1        0.0000
     58 H          12.3242    7.4728    8.6519 H       1  UNL1        0.0000
@<TRIPOS>BOND
     1    54    53    1
     2    55    53    1
     3    52    50    1
     4    53    50    1
     5    53    56    1
     6    58    56    1
     7    48    47    1
     8    50    47    1
     9    50    51    1
    10    43    42    1
    11    56    42    1
    12    56    57    1
    13    47    49    1
    14    47    44    1
    15    42    44    1
    16    42     2    1
    17    21    20    1
    18    44    46    1
    19    44    45    1
    20    22    20    1
    21     2    24    1
    22    20    24    1
    23    20    23    1
    24    41    39    1
    25    24     1    1
    26     5     4    1
    27    19    16    1
    28    18    16    1
    29    39    40    1
    30    39    36    1
    31    39    25    1
    32     1     3    1
    33     1    25    1
    34    38    36    1
    35     4     3    1
    36     4     6    2
    37    16     6    1
    38    16    17    1
    39    37    36    1
    40    26    25    1
    41     3    10    1
    42    36    33    1
    43    25    27    1
    44     6     7    1
    45    10    11    1
    46    10     9    1
    47     7     9    2
    48     7     8    1
    49    33    35    1
    50    33    34    1
    51    33    30    1
    52    27    28    1
    53    27    29    1
    54    27    30    1
    55     9    12    1
    56    31    30    1
    57    30    32    1
    58    15    12    1
    59    12    14    1
    60    12    13    1
