@<TRIPOS>MOLECULE
1,2,3
 55 57 0 0 0
SMALL
GASTEIGER

@<TRIPOS>ATOM
      1 N           4.9714    2.2840    2.9759 N.pl3   1  UNL1       -0.2500
      2 N           3.6196    4.0818    2.1955 N.pl3   1  UNL1       -0.2157
      3 N           2.2044    4.4441    4.0748 N.3     1  UNL1       -0.2225
      4 C           6.5556    2.1871    1.0215 C.3     1  UNL1       -0.0232
      5 H           7.2575    1.6473    1.6503 H       1  UNL1        0.0291
      6 H           7.0742    3.0305    0.5696 H       1  UNL1        0.0291
      7 H           6.2296    1.5255    0.2188 H       1  UNL1        0.0291
      8 C           5.3769    2.6904    1.7998 C.2     1  UNL1        0.0453
      9 C           4.5623    3.7467    1.2859 C.2     1  UNL1        0.0716
     10 C           4.6132    4.3980    0.0543 C.2     1  UNL1       -0.0371
     11 H           5.3620    4.1356   -0.6763 H       1  UNL1        0.0637
     12 C           3.6789    5.3865   -0.2197 C.2     1  UNL1       -0.0583
     13 H           3.7021    5.8996   -1.1695 H       1  UNL1        0.0619
     14 C           2.7149    5.7188    0.7213 C.2     1  UNL1       -0.0408
     15 H           1.9892    6.4890    0.5123 H       1  UNL1        0.0634
     16 C           2.7056    5.0454    1.9420 C.2     1  UNL1        0.0547
     17 C           1.8518    5.2129    3.0761 C.3     1  UNL1        0.0981
     18 C           0.6950    6.1657    3.0273 C.3     1  UNL1       -0.0377
     19 H          -0.0395    5.9536    3.7987 H       1  UNL1        0.0252
     20 H           0.2086    6.0906    2.0566 H       1  UNL1        0.0252
     21 H           1.0402    7.1925    3.1501 H       1  UNL1        0.0252
     22 C           5.6129    1.1838    3.6601 C.3     1  UNL1        0.0424
     23 H           6.7058    1.3121    3.6540 H       1  UNL1        0.0518
     24 C           5.2666   -0.1509    2.9832 C.3     1  UNL1       -0.0327
     25 H           5.6413   -0.1527    1.9599 H       1  UNL1        0.0284
     26 H           4.1810   -0.2386    2.9394 H       1  UNL1        0.0284
     27 C           5.8525   -1.3331    3.7475 C.3     1  UNL1       -0.0513
     28 H           5.5825   -2.2628    3.2425 H       1  UNL1        0.0266
     29 H           6.9433   -1.2623    3.7548 H       1  UNL1        0.0266
     30 C           5.3379   -1.3473    5.1820 C.3     1  UNL1       -0.0529
     31 H           5.7659   -2.1917    5.7262 H       1  UNL1        0.0265
     32 H           4.2524   -1.4655    5.1765 H       1  UNL1        0.0265
     33 C           5.7050   -0.0395    5.8735 C.3     1  UNL1       -0.0513
     34 H           6.7937    0.0461    5.9229 H       1  UNL1        0.0266
     35 H           5.3256   -0.0379    6.8973 H       1  UNL1        0.0266
     36 C           5.1373    1.1581    5.1164 C.3     1  UNL1       -0.0327
     37 H           4.0448    1.1232    5.1212 H       1  UNL1        0.0284
     38 H           5.4456    2.0766    5.6136 H       1  UNL1        0.0284
     39 C           1.5170    4.4898    5.3459 C.3     1  UNL1        0.0265
     40 H           0.4277    4.4482    5.1958 H       1  UNL1        0.0477
     41 C           1.8642    5.7802    6.1034 C.3     1  UNL1       -0.0360
     42 H           2.9489    5.8423    6.1908 H       1  UNL1        0.0281
     43 H           1.5275    6.6447    5.5317 H       1  UNL1        0.0281
     44 C           1.2299    5.8017    7.4900 C.3     1  UNL1       -0.0516
     45 H           0.1410    5.7801    7.3967 H       1  UNL1        0.0266
     46 H           1.5021    6.7278    8.0004 H       1  UNL1        0.0266
     47 C           1.6905    4.5992    8.3051 C.3     1  UNL1       -0.0530
     48 H           2.7732    4.6449    8.4386 H       1  UNL1        0.0265
     49 H           1.2282    4.6165    9.2942 H       1  UNL1        0.0265
     50 C           1.3203    3.3120    7.5774 C.3     1  UNL1       -0.0516
     51 H           0.2322    3.2477    7.4947 H       1  UNL1        0.0266
     52 H           1.6610    2.4469    8.1498 H       1  UNL1        0.0266
     53 C           1.9366    3.2760    6.1816 C.3     1  UNL1       -0.0360
     54 H           3.0275    3.2670    6.2517 H       1  UNL1        0.0281
     55 H           1.6258    2.3635    5.6749 H       1  UNL1        0.0281
@<TRIPOS>BOND
     1    13    12    1
     2    11    10    1
     3    12    10    2
     4    12    14    1
     5    10     9    1
     6     7     4    1
     7    15    14    1
     8     6     4    1
     9    14    16    2
    10     4     5    1
    11     4     8    1
    12     9     8    2
    13     9     2    1
    14     8     1    1
    15    16     2    1
    16    16    17    1
    17    25    24    1
    18    20    18    1
    19    26    24    1
    20     1    22    1
    21    24    22    1
    22    24    27    1
    23    18    17    1
    24    18    21    1
    25    18    19    1
    26    17     3    1
    27    28    27    1
    28    23    22    1
    29    22    36    1
    30    27    29    1
    31    27    30    1
    32     3    39    1
    33    36    37    1
    34    36    38    1
    35    36    33    1
    36    32    30    1
    37    30    31    1
    38    30    33    1
    39    40    39    1
    40    39    41    1
    41    39    53    1
    42    43    41    1
    43    55    53    1
    44    33    34    1
    45    33    35    1
    46    41    42    1
    47    41    44    1
    48    53    54    1
    49    53    50    1
    50    45    44    1
    51    44    46    1
    52    44    47    1
    53    51    50    1
    54    50    52    1
    55    50    47    1
    56    47    48    1
    57    47    49    1
