@<TRIPOS>MOLECULE
1,2,3
 45 44 0 0 0
SMALL
GASTEIGER

@<TRIPOS>ATOM
      1 N           3.2334    9.9016    3.5398 N.3     1  UNL1        0.0000
      2 N           3.7680   11.8662    5.8434 N.3     1  UNL1        0.0000
      3 N           4.4318    9.1789    6.0482 N.3     1  UNL1        0.0000
      4 C           4.5614    9.3316    3.5943 C.3     1  UNL1        0.0000
      5 C           4.7777    8.4508    4.8322 C.3     1  UNL1        0.0000
      6 C           5.4498   10.1907    6.3502 C.3     1  UNL1        0.0000
      7 C           4.7461   11.4620    6.8240 C.3     1  UNL1        0.0000
      8 C           4.3012    8.2677    7.1778 C.3     1  UNL1        0.0000
      9 C           2.4044    8.5356    0.9908 C.3     1  UNL1        0.0000
     10 C           4.0278   11.1139    0.8872 C.3     1  UNL1        0.0000
     11 C           1.0618   11.1759    1.7763 C.3     1  UNL1        0.0000
     12 C           4.0711   14.8277    6.2582 C.3     1  UNL1        0.0000
     13 C           5.7519   13.4220    4.1294 C.3     1  UNL1        0.0000
     14 C           2.6609   13.6236    3.7549 C.3     1  UNL1        0.0000
     15 SI          2.6944   10.2036    1.9398 Si      1  UNL1        0.0000
     16 SI          4.0452   13.3373    5.0281 Si      1  UNL1        0.0000
     17 H           5.3227   10.1318    3.5763 H       1  UNL1        0.0000
     18 H           4.7744    8.6955    2.7184 H       1  UNL1        0.0000
     19 H           5.8270    8.1015    4.8631 H       1  UNL1        0.0000
     20 H           4.1363    7.5667    4.7582 H       1  UNL1        0.0000
     21 H           6.1667    9.8212    7.1008 H       1  UNL1        0.0000
     22 H           6.0054   10.4401    5.4438 H       1  UNL1        0.0000
     23 H           5.5087   12.2342    7.0046 H       1  UNL1        0.0000
     24 H           4.2789   11.2468    7.8018 H       1  UNL1        0.0000
     25 H           4.0245    8.8258    8.0742 H       1  UNL1        0.0000
     26 H           5.2480    7.7381    7.3767 H       1  UNL1        0.0000
     27 H           3.5299    7.5201    6.9845 H       1  UNL1        0.0000
     28 H           2.3268    8.7077   -0.0780 H       1  UNL1        0.0000
     29 H           3.2196    7.8316    1.1412 H       1  UNL1        0.0000
     30 H           1.4864    8.0454    1.3048 H       1  UNL1        0.0000
     31 H           3.6562   11.3632   -0.1017 H       1  UNL1        0.0000
     32 H           4.3404   12.0381    1.3642 H       1  UNL1        0.0000
     33 H           4.9128   10.4978    0.7546 H       1  UNL1        0.0000
     34 H           1.2236   12.1249    1.2787 H       1  UNL1        0.0000
     35 H           0.6273   11.3774    2.7480 H       1  UNL1        0.0000
     36 H           0.3357   10.6197    1.1938 H       1  UNL1        0.0000
     37 H           4.2548   15.7653    5.7436 H       1  UNL1        0.0000
     38 H           4.8531   14.7109    7.0035 H       1  UNL1        0.0000
     39 H           3.1282   14.9242    6.7899 H       1  UNL1        0.0000
     40 H           5.9097   14.3853    3.6543 H       1  UNL1        0.0000
     41 H           6.5726   13.2677    4.8257 H       1  UNL1        0.0000
     42 H           5.8274   12.6597    3.3582 H       1  UNL1        0.0000
     43 H           2.1071   14.5364    3.9500 H       1  UNL1        0.0000
     44 H           1.9819   12.7750    3.7865 H       1  UNL1        0.0000
     45 H           3.0585   13.6979    2.7496 H       1  UNL1        0.0000
@<TRIPOS>BOND
     1    31    10    1
     2    28     9    1
     3    33    10    1
     4    10    32    1
     5    10    15    1
     6     9    29    1
     7     9    30    1
     8     9    15    1
     9    36    11    1
    10    34    11    1
    11    11    15    1
    12    11    35    1
    13    15     1    1
    14    18     4    1
    15    45    14    1
    16    42    13    1
    17     1     4    1
    18    17     4    1
    19     4     5    1
    20    40    13    1
    21    14    44    1
    22    14    43    1
    23    14    16    1
    24    13    41    1
    25    13    16    1
    26    20     5    1
    27     5    19    1
    28     5     3    1
    29    16     2    1
    30    16    12    1
    31    22     6    1
    32    37    12    1
    33     2     7    1
    34     3     6    1
    35     3     8    1
    36    12    39    1
    37    12    38    1
    38     6     7    1
    39     6    21    1
    40     7    23    1
    41     7    24    1
    42    27     8    1
    43     8    26    1
    44     8    25    1
