@<TRIPOS>MOLECULE
1,2,3
 49 49 0 0 0
SMALL
GASTEIGER

@<TRIPOS>ATOM
      1 N          16.5199    1.7608    9.8041 N.3     1  UNL1        0.0000
      2 N          18.6355    2.6242    7.6263 N.3     1  UNL1        0.0000
      3 N          17.9081    4.2354    9.8097 N.pl3   1  UNL1        0.0000
      4 SI         15.2105    2.0126   10.8797 Si      1  UNL1        0.0000
      5 SI         19.2867    2.9878    6.0904 Si      1  UNL1        0.0000
      6 C          17.7660    1.2191   10.2711 C.3     1  UNL1        0.0000
      7 C          19.0482    2.1127   10.1042 C.3     1  UNL1        0.0000
      8 C          19.5452    2.1182    8.6257 C.3     1  UNL1        0.0000
      9 C          20.1572    1.4424   10.9267 C.3     1  UNL1        0.0000
     10 C          18.7710    3.5207   10.5554 C.3     1  UNL1        0.0000
     11 C          19.3613    4.0870   11.6879 C.2     1  UNL1        0.0000
     12 C          19.0772    5.3924   12.0391 C.2     1  UNL1        0.0000
     13 C          18.2058    6.1258   11.2461 C.2     1  UNL1        0.0000
     14 C          17.6481    5.5017   10.1478 C.2     1  UNL1        0.0000
     15 C          15.1105    0.6589   12.2313 C.3     1  UNL1        0.0000
     16 C          15.2009    3.7066   11.8028 C.3     1  UNL1        0.0000
     17 C          13.6373    1.9441    9.7948 C.3     1  UNL1        0.0000
     18 C          20.6945    4.2948    6.1185 C.3     1  UNL1        0.0000
     19 C          17.8237    3.6720    5.0650 C.3     1  UNL1        0.0000
     20 C          20.0304    1.4562    5.1874 C.3     1  UNL1        0.0000
     21 H          17.7068    0.9622   11.3375 H       1  UNL1        0.0000
     22 H          17.9859    0.2868    9.7235 H       1  UNL1        0.0000
     23 H          20.4860    2.6946    8.6199 H       1  UNL1        0.0000
     24 H          19.8138    1.0737    8.3912 H       1  UNL1        0.0000
     25 H          21.0922    1.9926   10.8443 H       1  UNL1        0.0000
     26 H          19.8795    1.3585   11.9748 H       1  UNL1        0.0000
     27 H          20.3243    0.4364   10.5484 H       1  UNL1        0.0000
     28 H          20.0424    3.5155   12.2951 H       1  UNL1        0.0000
     29 H          19.5306    5.8328   12.9151 H       1  UNL1        0.0000
     30 H          17.9629    7.1505   11.4771 H       1  UNL1        0.0000
     31 H          16.9577    6.0353    9.5016 H       1  UNL1        0.0000
     32 H          14.1432    0.6664   12.7211 H       1  UNL1        0.0000
     33 H          15.8643    0.8098   12.9974 H       1  UNL1        0.0000
     34 H          15.2613   -0.3292   11.8096 H       1  UNL1        0.0000
     35 H          14.3659    3.7857   12.4919 H       1  UNL1        0.0000
     36 H          16.1132    3.8650   12.3746 H       1  UNL1        0.0000
     37 H          15.1119    4.5211   11.0862 H       1  UNL1        0.0000
     38 H          12.7535    2.1634   10.3832 H       1  UNL1        0.0000
     39 H          13.6953    2.6871    9.0025 H       1  UNL1        0.0000
     40 H          13.4967    0.9681    9.3401 H       1  UNL1        0.0000
     41 H          21.0240    4.5501    5.1163 H       1  UNL1        0.0000
     42 H          21.5613    3.9265    6.6593 H       1  UNL1        0.0000
     43 H          20.3695    5.2111    6.6040 H       1  UNL1        0.0000
     44 H          18.1315    4.5413    4.4948 H       1  UNL1        0.0000
     45 H          16.9974    3.9803    5.7126 H       1  UNL1        0.0000
     46 H          17.4514    2.9404    4.3560 H       1  UNL1        0.0000
     47 H          20.2711    1.6819    4.1534 H       1  UNL1        0.0000
     48 H          20.9486    1.1373    5.6714 H       1  UNL1        0.0000
     49 H          19.3517    0.6071    5.1901 H       1  UNL1        0.0000
@<TRIPOS>BOND
     1    47    20    1
     2    46    19    1
     3    44    19    1
     4    19    45    1
     5    19     5    1
     6    41    18    1
     7    20    49    1
     8    20    48    1
     9    20     5    1
    10     5    18    1
    11     5     2    1
    12    18    43    1
    13    18    42    1
    14     2     8    1
    15    24     8    1
    16    23     8    1
    17     8     7    1
    18    39    17    1
    19    40    17    1
    20    31    14    1
    21    22     6    1
    22    17    38    1
    23    17     4    1
    24     1     6    1
    25     1     4    1
    26     3    14    1
    27     3    10    1
    28     7     6    1
    29     7    10    1
    30     7     9    1
    31    14    13    2
    32     6    21    1
    33    27     9    1
    34    10    11    1
    35    25     9    1
    36     4    16    1
    37     4    15    1
    38     9    26    1
    39    37    16    1
    40    13    30    1
    41    13    12    1
    42    11    12    2
    43    11    28    1
    44    16    36    1
    45    16    35    1
    46    34    15    1
    47    12    29    1
    48    15    32    1
    49    15    33    1
