@<TRIPOS>MOLECULE
1,2,3
 54 53 0 0 0
SMALL
GASTEIGER

@<TRIPOS>ATOM
      1 N           4.3590    1.9429    3.6138 N.3     1  UNL1        0.0000
      2 N           7.2230    4.0929    3.8806 N.3     1  UNL1        0.0000
      3 N           7.1268    1.2121    3.8820 N.3     1  UNL1        0.0000
      4 SI          2.7918    1.4910    3.1048 Si      1  UNL1        0.0000
      5 SI          8.1510    5.4787    3.5020 Si      1  UNL1        0.0000
      6 SI          7.8519    0.2338    2.5790 Si      1  UNL1        0.0000
      7 C           4.8263    1.3980    4.8765 C.3     1  UNL1        0.0000
      8 C           6.0843    0.5336    4.6586 C.3     1  UNL1        0.0000
      9 C           8.0790    1.9402    4.7241 C.3     1  UNL1        0.0000
     10 C           7.6089    3.3643    5.0770 C.3     1  UNL1        0.0000
     11 C           2.5656    2.0776    1.3015 C.3     1  UNL1        0.0000
     12 C           1.3928    2.2572    4.1883 C.3     1  UNL1        0.0000
     13 C           2.4779   -0.4051    3.1606 C.3     1  UNL1        0.0000
     14 C           8.0957    6.8061    4.8953 C.3     1  UNL1        0.0000
     15 C           7.4279    6.2526    1.9149 C.3     1  UNL1        0.0000
     16 C          10.0215    5.1272    3.2156 C.3     1  UNL1        0.0000
     17 C           9.0601    1.3844    1.6543 C.3     1  UNL1        0.0000
     18 C           6.3873   -0.3660    1.5128 C.3     1  UNL1        0.0000
     19 C           8.7989   -1.2542    3.3265 C.3     1  UNL1        0.0000
     20 H           5.0530    2.2092    5.5881 H       1  UNL1        0.0000
     21 H           4.0739    0.7588    5.3590 H       1  UNL1        0.0000
     22 H           6.4860    0.2105    5.6293 H       1  UNL1        0.0000
     23 H           5.7606   -0.3559    4.1132 H       1  UNL1        0.0000
     24 H           8.2789    1.3763    5.6474 H       1  UNL1        0.0000
     25 H           9.0198    2.0443    4.1794 H       1  UNL1        0.0000
     26 H           8.4334    3.8533    5.6139 H       1  UNL1        0.0000
     27 H           6.7638    3.3085    5.7824 H       1  UNL1        0.0000
     28 H           2.1133    1.2975    0.6999 H       1  UNL1        0.0000
     29 H           1.9171    2.9446    1.2382 H       1  UNL1        0.0000
     30 H           3.5213    2.3290    0.8450 H       1  UNL1        0.0000
     31 H           0.4130    1.9192    3.8657 H       1  UNL1        0.0000
     32 H           1.5101    1.9677    5.2289 H       1  UNL1        0.0000
     33 H           1.3908    3.3436    4.1528 H       1  UNL1        0.0000
     34 H           1.4483   -0.6421    2.9120 H       1  UNL1        0.0000
     35 H           2.6713   -0.8060    4.1516 H       1  UNL1        0.0000
     36 H           3.1153   -0.9392    2.4617 H       1  UNL1        0.0000
     37 H           8.6504    7.6958    4.6152 H       1  UNL1        0.0000
     38 H           8.5370    6.4232    5.8106 H       1  UNL1        0.0000
     39 H           7.0802    7.1138    5.1308 H       1  UNL1        0.0000
     40 H           8.1974    6.7912    1.3739 H       1  UNL1        0.0000
     41 H           7.0318    5.4888    1.2484 H       1  UNL1        0.0000
     42 H           6.6371    6.9611    2.1395 H       1  UNL1        0.0000
     43 H          10.5892    6.0476    3.1208 H       1  UNL1        0.0000
     44 H          10.4451    4.5693    4.0466 H       1  UNL1        0.0000
     45 H          10.1866    4.5464    2.3123 H       1  UNL1        0.0000
     46 H           9.0857    1.1388    0.5978 H       1  UNL1        0.0000
     47 H          10.0767    1.3082    2.0296 H       1  UNL1        0.0000
     48 H           8.7401    2.4251    1.7356 H       1  UNL1        0.0000
     49 H           6.6286   -0.3000    0.4569 H       1  UNL1        0.0000
     50 H           6.1188   -1.3980    1.7206 H       1  UNL1        0.0000
     51 H           5.5068    0.2596    1.6831 H       1  UNL1        0.0000
     52 H           9.2467   -1.8609    2.5470 H       1  UNL1        0.0000
     53 H           9.5985   -0.9277    3.9849 H       1  UNL1        0.0000
     54 H           8.1422   -1.8981    3.9038 H       1  UNL1        0.0000
@<TRIPOS>BOND
     1    49    18    1
     2    46    17    1
     3    28    11    1
     4    30    11    1
     5    29    11    1
     6    41    15    1
     7    11     4    1
     8    40    15    1
     9    18    51    1
    10    18    50    1
    11    18     6    1
    12    17    48    1
    13    17    47    1
    14    17     6    1
    15    15    42    1
    16    15     5    1
    17    45    16    1
    18    36    13    1
    19    52    19    1
    20     6    19    1
    21     6     3    1
    22    34    13    1
    23     4    13    1
    24     4     1    1
    25     4    12    1
    26    43    16    1
    27    13    35    1
    28    16     5    1
    29    16    44    1
    30    19    54    1
    31    19    53    1
    32     5     2    1
    33     5    14    1
    34     1     7    1
    35    31    12    1
    36     2    10    1
    37     3     8    1
    38     3     9    1
    39    23     8    1
    40    33    12    1
    41    25     9    1
    42    12    32    1
    43    37    14    1
    44     8     7    1
    45     8    22    1
    46     9    10    1
    47     9    24    1
    48     7    21    1
    49     7    20    1
    50    14    39    1
    51    14    38    1
    52    10    26    1
    53    10    27    1
