@<TRIPOS>MOLECULE
1,2,3
 33 33 0 0 0
SMALL
GASTEIGER

@<TRIPOS>ATOM
      1 N           4.3796    0.8524    3.2733 N.3     1  UNL1       -0.3029
      2 N           2.0348   -0.4035    2.4841 N.3     1  UNL1       -0.3029
      3 N           2.0796    1.1605    4.7710 N.3     1  UNL1       -0.3029
      4 C           5.4338    1.7812    2.8899 C.3     1  UNL1       -0.0127
      5 C           4.4746   -0.3467    2.4471 C.3     1  UNL1        0.0114
      6 C           3.2424   -1.2259    2.6086 C.3     1  UNL1        0.0114
      7 C           1.4217   -0.6019    1.1804 C.3     1  UNL1       -0.0127
      8 C           1.0587   -0.6797    3.5335 C.3     1  UNL1        0.0114
      9 C           1.5671   -0.2052    4.8906 C.3     1  UNL1        0.0114
     10 C           1.1108    2.1163    5.2843 C.3     1  UNL1       -0.0127
     11 C           3.3654    1.3455    5.4359 C.3     1  UNL1        0.0114
     12 C           4.4561    0.5696    4.7094 C.3     1  UNL1        0.0114
     13 H           6.4224    1.3243    2.9968 H       1  UNL1        0.0391
     14 H           5.2746    2.0745    1.8560 H       1  UNL1        0.0391
     15 H           5.3621    2.6702    3.5067 H       1  UNL1        0.0391
     16 H           4.5117    0.0041    1.4171 H       1  UNL1        0.0439
     17 H           5.3853   -0.9189    2.6702 H       1  UNL1        0.0439
     18 H           3.2480   -1.7285    3.5765 H       1  UNL1        0.0439
     19 H           3.2582   -2.0043    1.8404 H       1  UNL1        0.0439
     20 H           0.5852    0.0807    1.0662 H       1  UNL1        0.0391
     21 H           2.1510   -0.3589    0.4142 H       1  UNL1        0.0391
     22 H           1.0666   -1.6308    1.0540 H       1  UNL1        0.0391
     23 H           0.1522   -0.1256    3.2848 H       1  UNL1        0.0439
     24 H           0.8009   -1.7485    3.5742 H       1  UNL1        0.0439
     25 H           2.3552   -0.8653    5.2505 H       1  UNL1        0.0439
     26 H           0.7508   -0.2547    5.6194 H       1  UNL1        0.0439
     27 H           1.4497    3.1159    5.0172 H       1  UNL1        0.0391
     28 H           0.1424    1.9370    4.8254 H       1  UNL1        0.0391
     29 H           1.0096    2.0425    6.3722 H       1  UNL1        0.0391
     30 H           3.5913    2.4078    5.3587 H       1  UNL1        0.0439
     31 H           3.3193    1.0561    6.4950 H       1  UNL1        0.0439
     32 H           4.3537   -0.5023    4.8821 H       1  UNL1        0.0439
     33 H           5.4286    0.8694    5.1091 H       1  UNL1        0.0439
@<TRIPOS>BOND
     1    21     7    1
     2    22     7    1
     3    20     7    1
     4     7     2    1
     5    16     5    1
     6    19     6    1
     7    14     4    1
     8     5     6    1
     9     5    17    1
    10     5     1    1
    11     2     6    1
    12     2     8    1
    13     6    18    1
    14     4    13    1
    15     4     1    1
    16     4    15    1
    17     1    12    1
    18    23     8    1
    19     8    24    1
    20     8     9    1
    21    12    32    1
    22    12    33    1
    23    12    11    1
    24     3     9    1
    25     3    10    1
    26     3    11    1
    27    28    10    1
    28     9    25    1
    29     9    26    1
    30    27    10    1
    31    10    29    1
    32    30    11    1
    33    11    31    1
