@<TRIPOS>MOLECULE
1,2,3
 45 44 0 0 0
SMALL
GASTEIGER

@<TRIPOS>ATOM
      1 N           1.3590    7.9287    3.3796 N.3     1  UNL1        0.0000
      2 N           2.2043    7.6029    6.2788 N.3     1  UNL1        0.0000
      3 N           0.3110    9.5153    5.2937 N.3     1  UNL1        0.0000
      4 C           0.0356    8.4310    3.0955 C.3     1  UNL1        0.0000
      5 C          -0.3473    9.6184    3.9976 C.3     1  UNL1        0.0000
      6 C          -0.1240    8.3221    6.0195 C.3     1  UNL1        0.0000
      7 C           0.9692    7.8536    6.9799 C.3     1  UNL1        0.0000
      8 C           0.0423   10.7118    6.0757 C.3     1  UNL1        0.0000
      9 C           0.5347    5.1729    2.5013 C.3     1  UNL1        0.0000
     10 C           2.0241    7.0122    0.5634 C.3     1  UNL1        0.0000
     11 C           3.5171    5.8833    3.0405 C.3     1  UNL1        0.0000
     12 C           2.6617    4.5941    6.3490 C.3     1  UNL1        0.0000
     13 C           3.1990    6.2615    8.8175 C.3     1  UNL1        0.0000
     14 C           5.0072    6.7576    6.3761 C.3     1  UNL1        0.0000
     15 H          -0.0608    8.7687    2.0467 H       1  UNL1        0.0000
     16 H          -0.7206    7.6338    3.2143 H       1  UNL1        0.0000
     17 H          -0.0242   10.5560    3.5298 H       1  UNL1        0.0000
     18 H          -1.4471    9.6598    4.1126 H       1  UNL1        0.0000
     19 H          -1.0681    8.5120    6.5612 H       1  UNL1        0.0000
     20 H          -0.2845    7.5123    5.3064 H       1  UNL1        0.0000
     21 H           1.1081    8.6166    7.7734 H       1  UNL1        0.0000
     22 H           0.5888    6.9531    7.4881 H       1  UNL1        0.0000
     23 H           0.5270   10.6451    7.0499 H       1  UNL1        0.0000
     24 H           0.4228   11.5950    5.5579 H       1  UNL1        0.0000
     25 H          -1.0405   10.8474    6.2384 H       1  UNL1        0.0000
     26 H           0.9106    4.2629    2.0458 H       1  UNL1        0.0000
     27 H          -0.3683    5.4504    1.9658 H       1  UNL1        0.0000
     28 H           0.2534    4.9353    3.5237 H       1  UNL1        0.0000
     29 H           1.1166    7.4593    0.1659 H       1  UNL1        0.0000
     30 H           2.8388    7.7120    0.4002 H       1  UNL1        0.0000
     31 H           2.2292    6.1249   -0.0272 H       1  UNL1        0.0000
     32 H           3.4685    4.8133    3.2103 H       1  UNL1        0.0000
     33 H           3.8049    6.3754    3.9654 H       1  UNL1        0.0000
     34 H           4.2906    6.0613    2.3025 H       1  UNL1        0.0000
     35 H           2.3162    4.5890    5.3201 H       1  UNL1        0.0000
     36 H           1.8490    4.2306    6.9724 H       1  UNL1        0.0000
     37 H           3.4752    3.8800    6.4317 H       1  UNL1        0.0000
     38 H           3.5949    7.1577    9.2883 H       1  UNL1        0.0000
     39 H           2.1910    6.1166    9.1953 H       1  UNL1        0.0000
     40 H           3.7950    5.4240    9.1659 H       1  UNL1        0.0000
     41 H           5.6413    6.9581    7.2343 H       1  UNL1        0.0000
     42 H           5.4537    5.9351    5.8284 H       1  UNL1        0.0000
     43 H           5.0009    7.6400    5.7344 H       1  UNL1        0.0000
     44 SI          1.8516    6.5826    2.4419 Si      1  UNL1        0.0000
     45 SI          3.2066    6.3625    6.8859 Si      1  UNL1        0.0000
@<TRIPOS>BOND
     1    31    10    1
     2    29    10    1
     3    30    10    1
     4    10    44    1
     5    27     9    1
     6    26     9    1
     7    15     4    1
     8    34    11    1
     9    44     9    1
    10    44    11    1
    11    44     1    1
    12     9    28    1
    13    11    32    1
    14    11    33    1
    15     4    16    1
    16     4     1    1
    17     4     5    1
    18    17     5    1
    19     5    18    1
    20     5     3    1
    21     3     6    1
    22     3     8    1
    23    20     6    1
    24    35    12    1
    25    24     8    1
    26    43    14    1
    27    42    14    1
    28     6    19    1
    29     6     7    1
    30     8    25    1
    31     8    23    1
    32     2    45    1
    33     2     7    1
    34    12    37    1
    35    12    45    1
    36    12    36    1
    37    14    45    1
    38    14    41    1
    39    45    13    1
    40     7    22    1
    41     7    21    1
    42    13    40    1
    43    13    39    1
    44    13    38    1
