@<TRIPOS>MOLECULE
1,2,3
 63 63 0 0 0
SMALL
GASTEIGER

@<TRIPOS>ATOM
      1 N           2.7126    1.8995   12.6225 N.pl3   1  UNL1       -0.2371
      2 N           0.6350    3.5084   13.7631 N.pl3   1  UNL1       -0.2541
      3 N           2.3149    4.6922   15.7389 N.3     1  UNL1       -0.2330
      4 C           1.9907    0.8422   10.5107 C.3     1  UNL1       -0.0359
      5 H           1.4118    1.2828    9.7014 H       1  UNL1        0.0255
      6 H           1.6886   -0.2004   10.6096 H       1  UNL1        0.0255
      7 H           3.0454    0.8782   10.2485 H       1  UNL1        0.0255
      8 C           1.7207    1.5773   11.8081 C.3     1  UNL1        0.0968
      9 C           0.3830    1.9023   12.0345 C.2     1  UNL1       -0.0387
     10 H          -0.3237    1.4673   11.3417 H       1  UNL1        0.0610
     11 C          -0.1311    2.8692   12.9131 C.2     1  UNL1        0.0204
     12 C          -1.5940    3.2212   12.7592 C.3     1  UNL1       -0.0253
     13 H          -2.0669    3.3187   13.7351 H       1  UNL1        0.0290
     14 H          -2.1166    2.4597   12.1870 H       1  UNL1        0.0290
     15 H          -1.6989    4.1734   12.2380 H       1  UNL1        0.0290
     16 C           0.1536    4.6830   14.4578 C.3     1  UNL1        0.0451
     17 H          -0.4746    4.4040   15.3181 H       1  UNL1        0.0495
     18 H          -0.4433    5.3289   13.7973 H       1  UNL1        0.0495
     19 C           1.3766    5.4878   14.9585 C.3     1  UNL1        0.0319
     20 H           1.8845    5.8835   14.0617 H       1  UNL1        0.0457
     21 H           0.9917    6.3474   15.5183 H       1  UNL1        0.0457
     22 C           4.0513    1.7592   12.2081 C.ar    1  UNL1        0.0557
     23 C           4.7395    0.5365   12.2973 C.ar    1  UNL1       -0.0219
     24 C           6.0767    0.4864   11.9311 C.ar    1  UNL1       -0.0565
     25 H           6.6117   -0.4502   11.9955 H       1  UNL1        0.0621
     26 C           6.7372    1.6100   11.4708 C.ar    1  UNL1       -0.0611
     27 H           7.7769    1.5512   11.1832 H       1  UNL1        0.0618
     28 C           6.0567    2.8106   11.3762 C.ar    1  UNL1       -0.0565
     29 H           6.5771    3.6852   11.0146 H       1  UNL1        0.0621
     30 C           4.7190    2.9034   11.7306 C.ar    1  UNL1       -0.0219
     31 C           4.0525   -0.7098   12.8076 C.3     1  UNL1       -0.0197
     32 H           2.9954   -0.4764   12.9714 H       1  UNL1        0.0344
     33 C           4.1437   -1.8619   11.8042 C.3     1  UNL1       -0.0586
     34 H           5.1711   -2.1998   11.6892 H       1  UNL1        0.0235
     35 H           3.7759   -1.5565   10.8277 H       1  UNL1        0.0235
     36 H           3.5476   -2.7041   12.1500 H       1  UNL1        0.0235
     37 C           4.6576   -1.1248   14.1505 C.3     1  UNL1       -0.0586
     38 H           5.6990   -1.4181   14.0290 H       1  UNL1        0.0235
     39 H           4.1098   -1.9667   14.5690 H       1  UNL1        0.0235
     40 H           4.6039   -0.2910   14.8463 H       1  UNL1        0.0235
     41 C           3.9898    4.2256   11.6311 C.3     1  UNL1       -0.0197
     42 H           2.9204    4.0428   11.7873 H       1  UNL1        0.0344
     43 C           4.4692    5.1736   12.7362 C.3     1  UNL1       -0.0586
     44 H           4.2142    4.7676   13.7212 H       1  UNL1        0.0235
     45 H           3.9868    6.1436   12.6306 H       1  UNL1        0.0235
     46 H           5.5472    5.3209   12.6787 H       1  UNL1        0.0235
     47 C           4.1636    4.8654   10.2521 C.3     1  UNL1       -0.0586
     48 H           3.5216    5.7393   10.1641 H       1  UNL1        0.0235
     49 H           3.8928    4.1596    9.4699 H       1  UNL1        0.0235
     50 H           5.1906    5.1833   10.0881 H       1  UNL1        0.0235
     51 C           2.5083    5.1710   17.0992 C.3     1  UNL1        0.0282
     52 C           1.2145    5.1188   17.9432 C.3     1  UNL1       -0.0458
     53 H           0.4627    5.8011   17.5541 H       1  UNL1        0.0248
     54 H           1.4210    5.3965   18.9749 H       1  UNL1        0.0248
     55 H           0.8074    4.1085   17.9229 H       1  UNL1        0.0248
     56 C           3.5557    4.2760   17.7793 C.3     1  UNL1       -0.0458
     57 H           3.2231    3.2347   17.7765 H       1  UNL1        0.0248
     58 H           3.7160    4.5912   18.8091 H       1  UNL1        0.0248
     59 H           4.4978    4.3536   17.2397 H       1  UNL1        0.0248
     60 C           3.0699    6.6121   17.1190 C.3     1  UNL1       -0.0458
     61 H           3.9329    6.6733   16.4596 H       1  UNL1        0.0248
     62 H           3.3750    6.8829   18.1274 H       1  UNL1        0.0248
     63 H           2.3332    7.3366   16.7844 H       1  UNL1        0.0248
@<TRIPOS>BOND
     1    49    47    1
     2     5     4    1
     3    50    47    1
     4    48    47    1
     5     7     4    1
     6    47    41    1
     7     4     6    1
     8     4     8    1
     9    35    33    1
    10    29    28    1
    11    27    26    1
    12    10     9    1
    13    28    26   ar
    14    28    30   ar
    15    26    24   ar
    16    41    30    1
    17    41    42    1
    18    41    43    1
    19    34    33    1
    20    30    22   ar
    21    33    36    1
    22    33    31    1
    23     8     9    1
    24     8     1    1
    25    24    25    1
    26    24    23   ar
    27     9    11    2
    28    14    12    1
    29    22    23   ar
    30    22     1    1
    31    15    12    1
    32    23    31    1
    33    45    43    1
    34    46    43    1
    35    43    44    1
    36    12    11    1
    37    12    13    1
    38    31    32    1
    39    31    37    1
    40    11     2    1
    41     2    16    1
    42    18    16    1
    43    38    37    1
    44    20    19    1
    45    37    39    1
    46    37    40    1
    47    16    19    1
    48    16    17    1
    49    19    21    1
    50    19     3    1
    51     3    51    1
    52    61    60    1
    53    63    60    1
    54    51    60    1
    55    51    56    1
    56    51    52    1
    57    60    62    1
    58    59    56    1
    59    53    52    1
    60    57    56    1
    61    56    58    1
    62    55    52    1
    63    52    54    1
