@<TRIPOS>MOLECULE
1,2,3
 67 68 0 0 0
SMALL
GASTEIGER

@<TRIPOS>ATOM
      1 N           7.8375    7.1489   14.1884 N.pl3   1  UNL1       -0.2371
      2 N           9.3371    5.5339   12.2606 N.pl3   1  UNL1       -0.2538
      3 N           8.1909    6.7543    9.9795 N.pl3   1  UNL1       -0.2485
      4 C           8.7602    6.9220   16.4638 C.3     1  UNL1       -0.0359
      5 H           9.7951    7.0924   16.7555 H       1  UNL1        0.0255
      6 H           8.3737    6.1085   17.0771 H       1  UNL1        0.0255
      7 H           8.1859    7.8228   16.6661 H       1  UNL1        0.0255
      8 C           8.6777    6.5300   15.0018 C.3     1  UNL1        0.0968
      9 C           9.5292    5.4877   14.6305 C.2     1  UNL1       -0.0387
     10 H          10.0640    5.0261   15.4489 H       1  UNL1        0.0610
     11 C           9.8809    5.0402   13.3469 C.2     1  UNL1        0.0204
     12 C          10.9797    4.0024   13.2761 C.3     1  UNL1       -0.0253
     13 H          10.7249    3.2186   12.5646 H       1  UNL1        0.0290
     14 H          11.1437    3.5506   14.2500 H       1  UNL1        0.0290
     15 H          11.9135    4.4633   12.9523 H       1  UNL1        0.0290
     16 C           9.8550    5.2148   10.9428 C.3     1  UNL1        0.0484
     17 H           9.3392    4.3343   10.5277 H       1  UNL1        0.0498
     18 H          10.9336    5.0113   10.9567 H       1  UNL1        0.0498
     19 C           9.6093    6.4311   10.0302 C.3     1  UNL1        0.0488
     20 H          10.2385    7.2394   10.4382 H       1  UNL1        0.0498
     21 H           9.9772    6.1895    9.0212 H       1  UNL1        0.0498
     22 C           7.2162    8.3570   14.5736 C.ar    1  UNL1        0.0557
     23 C           5.8701    8.3898   14.9793 C.ar    1  UNL1       -0.0219
     24 C           5.2592    9.6193   15.1826 C.ar    1  UNL1       -0.0565
     25 H           4.2264    9.6571   15.4951 H       1  UNL1        0.0621
     26 C           5.9521   10.8010   15.0048 C.ar    1  UNL1       -0.0611
     27 H           5.4557   11.7497   15.1487 H       1  UNL1        0.0618
     28 C           7.2959   10.7637   14.6782 C.ar    1  UNL1       -0.0565
     29 H           7.8386   11.6914   14.5823 H       1  UNL1        0.0621
     30 C           7.9509    9.5577   14.4869 C.ar    1  UNL1       -0.0219
     31 C           5.1192    7.1116   15.2834 C.3     1  UNL1       -0.0197
     32 H           5.6736    6.2734   14.8451 H       1  UNL1        0.0344
     33 C           5.0535    6.9053   16.8012 C.3     1  UNL1       -0.0586
     34 H           4.5249    7.7306   17.2747 H       1  UNL1        0.0235
     35 H           6.0494    6.8475   17.2297 H       1  UNL1        0.0235
     36 H           4.5267    5.9812   17.0300 H       1  UNL1        0.0235
     37 C           3.6989    7.1014   14.7152 C.3     1  UNL1       -0.0586
     38 H           3.0603    7.8108   15.2367 H       1  UNL1        0.0235
     39 H           3.2629    6.1114   14.8353 H       1  UNL1        0.0235
     40 H           3.7039    7.3531   13.6579 H       1  UNL1        0.0235
     41 C           9.4316    9.5123   14.1742 C.3     1  UNL1       -0.0197
     42 H           9.8306    8.5715   14.5645 H       1  UNL1        0.0344
     43 C           9.6463    9.5054   12.6593 C.3     1  UNL1       -0.0586
     44 H           9.1111    8.6579   12.2186 H       1  UNL1        0.0235
     45 H          10.7071    9.4095   12.4320 H       1  UNL1        0.0235
     46 H           9.2786   10.4325   12.2210 H       1  UNL1        0.0235
     47 C          10.2197   10.6512   14.8212 C.3     1  UNL1       -0.0586
     48 H          11.2862   10.4550   14.7313 H       1  UNL1        0.0235
     49 H           9.9740   10.7374   15.8773 H       1  UNL1        0.0235
     50 H          10.0156   11.6029   14.3362 H       1  UNL1        0.0235
     51 C           7.7478    7.5295    8.9277 C.ar    1  UNL1        0.0536
     52 C           6.4999    7.1841    8.3398 C.ar    1  UNL1       -0.0276
     53 C           5.9522    7.9325    7.3156 C.ar    1  UNL1       -0.0570
     54 H           5.0026    7.6305    6.8920 H       1  UNL1        0.0621
     55 C           6.6108    9.0344    6.8013 C.ar    1  UNL1       -0.0611
     56 H           6.1822    9.6137    5.9972 H       1  UNL1        0.0618
     57 C           7.8418    9.3660    7.3343 C.ar    1  UNL1       -0.0570
     58 H           8.3707   10.2225    6.9358 H       1  UNL1        0.0621
     59 C           8.4235    8.6520    8.3709 C.ar    1  UNL1       -0.0276
     60 C           5.7534    5.9621    8.7945 C.3     1  UNL1       -0.0379
     61 H           5.0783    6.2058    9.6199 H       1  UNL1        0.0278
     62 H           6.4514    5.1899    9.1244 H       1  UNL1        0.0278
     63 H           5.1506    5.5677    7.9771 H       1  UNL1        0.0278
     64 C           9.7399    9.1844    8.8779 C.3     1  UNL1       -0.0379
     65 H          10.5729    8.5467    8.5846 H       1  UNL1        0.0278
     66 H           9.7432    9.2804    9.9610 H       1  UNL1        0.0278
     67 H           9.9185   10.1723    8.4549 H       1  UNL1        0.0278
@<TRIPOS>BOND
     1    56    55    1
     2    55    53   ar
     3    55    57   ar
     4    54    53    1
     5    58    57    1
     6    53    52   ar
     7    57    59   ar
     8    63    60    1
     9    52    60    1
    10    52    51   ar
    11    59    64    1
    12    59    51   ar
    13    67    64    1
    14    65    64    1
    15    60    62    1
    16    60    61    1
    17    64    66    1
    18    51     3    1
    19    21    19    1
    20     3    19    1
    21    19    20    1
    22    19    16    1
    23    17    16    1
    24    16    18    1
    25    16     2    1
    26    44    43    1
    27    46    43    1
    28     2    11    1
    29    45    43    1
    30    13    12    1
    31    43    41    1
    32    15    12    1
    33    12    11    1
    34    12    14    1
    35    11     9    2
    36    40    37    1
    37    41    30    1
    38    41    42    1
    39    41    47    1
    40     1    22    1
    41     1     8    1
    42    50    47    1
    43    30    22   ar
    44    30    28   ar
    45    22    23   ar
    46    29    28    1
    47     9     8    1
    48     9    10    1
    49    28    26   ar
    50    37    39    1
    51    37    38    1
    52    37    31    1
    53    48    47    1
    54    47    49    1
    55    32    31    1
    56    23    24   ar
    57    23    31    1
    58     8     4    1
    59    26    27    1
    60    26    24   ar
    61    24    25    1
    62    31    33    1
    63     4     7    1
    64     4     5    1
    65     4     6    1
    66    33    36    1
    67    33    35    1
    68    33    34    1
