@<TRIPOS>MOLECULE
2,3,5
 60 63 0 0 0
SMALL
GASTEIGER

@<TRIPOS>ATOM
      1 SI          0.8461    0.6455   12.5946 Si      1  UNL1        0.0000
      2 N           0.3341    1.1977    8.7870 N.pl3   1  UNL1        0.0000
      3 N           0.4474    0.9770   10.9765 N.3     1  UNL1        0.0000
      4 N          -0.7957    0.3063   13.2532 N.pl3   1  UNL1        0.0000
      5 N          -1.5009    2.3035   12.3783 N.3     1  UNL1        0.0000
      6 H          -2.2466    2.9989   12.4953 H       1  UNL1        0.0000
      7 C           0.8306    1.4468    7.5071 C.ar    1  UNL1        0.0000
      8 C           0.2784    0.7621    6.4228 C.ar    1  UNL1        0.0000
      9 H          -0.4752    0.0095    6.6135 H       1  UNL1        0.0000
     10 C           0.7031    1.0403    5.1379 C.ar    1  UNL1        0.0000
     11 H           0.2778    0.5010    4.3034 H       1  UNL1        0.0000
     12 C           1.6712    2.0074    4.9154 C.ar    1  UNL1        0.0000
     13 H           1.9984    2.2247    3.9096 H       1  UNL1        0.0000
     14 C           2.2129    2.6985    5.9879 C.ar    1  UNL1        0.0000
     15 H           2.9606    3.4592    5.8169 H       1  UNL1        0.0000
     16 C           1.8013    2.4251    7.2784 C.ar    1  UNL1        0.0000
     17 H           2.1987    2.9787    8.1183 H       1  UNL1        0.0000
     18 C           1.0994    0.9580    9.8273 C.3     1  UNL1        0.0000
     19 C           2.5479    0.6744    9.7283 C.ar    1  UNL1        0.0000
     20 C           3.0213   -0.3177    8.8769 C.ar    1  UNL1        0.0000
     21 H           2.3224   -0.8942    8.2890 H       1  UNL1        0.0000
     22 C           4.3796   -0.5683    8.7988 C.ar    1  UNL1        0.0000
     23 H           4.7447   -1.3446    8.1430 H       1  UNL1        0.0000
     24 C           5.2697    0.1773    9.5540 C.ar    1  UNL1        0.0000
     25 H           6.3299   -0.0166    9.4856 H       1  UNL1        0.0000
     26 C           4.8006    1.1766   10.3916 C.ar    1  UNL1        0.0000
     27 H           5.4949    1.7667   10.9711 H       1  UNL1        0.0000
     28 C           3.4432    1.4238   10.4841 C.ar    1  UNL1        0.0000
     29 H           3.0629    2.2124   11.1153 H       1  UNL1        0.0000
     30 C           1.8957   -0.9230   12.8368 C.3     1  UNL1        0.0000
     31 H           1.3582   -1.8147   12.5299 H       1  UNL1        0.0000
     32 H           2.1991   -1.0559   13.8682 H       1  UNL1        0.0000
     33 H           2.7963   -0.8548   12.2358 H       1  UNL1        0.0000
     34 C           1.4971    2.1592   13.5681 C.3     1  UNL1        0.0000
     35 H           1.1989    3.0806   13.0701 H       1  UNL1        0.0000
     36 H           2.5806    2.1526   13.6394 H       1  UNL1        0.0000
     37 H           1.1026    2.1904   14.5798 H       1  UNL1        0.0000
     38 C          -1.1410   -0.9500   13.7986 C.ar    1  UNL1        0.0000
     39 C          -0.4957   -1.4111   14.9383 C.ar    1  UNL1        0.0000
     40 H           0.2533   -0.7923   15.4090 H       1  UNL1        0.0000
     41 C          -0.8282   -2.6450   15.4674 C.ar    1  UNL1        0.0000
     42 H          -0.3277   -2.9987   16.3568 H       1  UNL1        0.0000
     43 C          -1.8035   -3.4211   14.8638 C.ar    1  UNL1        0.0000
     44 H          -2.0637   -4.3820   15.2815 H       1  UNL1        0.0000
     45 C          -2.4405   -2.9632   13.7222 C.ar    1  UNL1        0.0000
     46 H          -3.1951   -3.5686   13.2433 H       1  UNL1        0.0000
     47 C          -2.1118   -1.7324   13.1839 C.ar    1  UNL1        0.0000
     48 H          -2.5871   -1.3757   12.2818 H       1  UNL1        0.0000
     49 C          -1.7473    1.2306   13.0780 C.3     1  UNL1        0.0000
     50 C          -3.0546    1.0706   13.7614 C.ar    1  UNL1        0.0000
     51 C          -3.1344    0.8157   15.1271 C.ar    1  UNL1        0.0000
     52 H          -2.2302    0.7118   15.7079 H       1  UNL1        0.0000
     53 C          -4.3700    0.7155   15.7389 C.ar    1  UNL1        0.0000
     54 H          -4.4274    0.5238   16.8001 H       1  UNL1        0.0000
     55 C          -5.5292    0.8593   14.9942 C.ar    1  UNL1        0.0000
     56 H          -6.4922    0.7732   15.4753 H       1  UNL1        0.0000
     57 C          -5.4529    1.1168   13.6354 C.ar    1  UNL1        0.0000
     58 H          -6.3544    1.2321   13.0535 H       1  UNL1        0.0000
     59 C          -4.2212    1.2333   13.0171 C.ar    1  UNL1        0.0000
     60 H          -4.1583    1.4231   11.9522 H       1  UNL1        0.0000
@<TRIPOS>BOND
     1    13    12    1
     2    11    10    1
     3    12    10   ar
     4    12    14   ar
     5    10     8   ar
     6    15    14    1
     7    14    16   ar
     8     8     9    1
     9     8     7   ar
    10    16     7   ar
    11    16    17    1
    12     7     2    1
    13    23    22    1
    14    21    20    1
    15     2    18    1
    16    22    20   ar
    17    22    24   ar
    18    20    19   ar
    19    25    24    1
    20    24    26   ar
    21    19    18    1
    22    19    28   ar
    23    18     3    1
    24    26    28   ar
    25    26    27    1
    26    28    29    1
    27     3     1    1
    28    60    59    1
    29    33    30    1
    30    48    47    1
    31     5     6    1
    32     5    49    1
    33    31    30    1
    34     1    30    1
    35     1     4    1
    36     1    34    1
    37    30    32    1
    38    59    57   ar
    39    59    50   ar
    40    58    57    1
    41    35    34    1
    42    49     4    1
    43    49    50    1
    44    47    45   ar
    45    47    38   ar
    46    46    45    1
    47     4    38    1
    48    34    36    1
    49    34    37    1
    50    57    55   ar
    51    45    43   ar
    52    50    51   ar
    53    38    39   ar
    54    43    44    1
    55    43    41   ar
    56    39    40    1
    57    39    41   ar
    58    55    56    1
    59    55    53   ar
    60    51    52    1
    61    51    53   ar
    62    41    42    1
    63    53    54    1
