@<TRIPOS>MOLECULE
1,2,3
 49 49 0 0 0
SMALL
GASTEIGER

@<TRIPOS>ATOM
      1 N           5.9905    4.9607   25.5757 N.3     1  UNL1        0.0000
      2 N           7.2313    2.8324   24.1078 N.3     1  UNL1        0.0000
      3 N           6.7495    3.1479   27.1729 N.pl3   1  UNL1        0.0000
      4 SI          5.5728    6.6188   25.7002 Si      1  UNL1        0.0000
      5 SI          7.5948    3.0579   22.4374 Si      1  UNL1        0.0000
      6 C           4.9621    4.0809   25.0875 C.3     1  UNL1        0.0000
      7 C           6.2433    1.9158   24.5871 C.3     1  UNL1        0.0000
      8 C           5.1449    2.5800   25.4799 C.3     1  UNL1        0.0000
      9 C           3.8187    1.8534   25.2359 C.3     1  UNL1        0.0000
     10 C           5.5756    2.5517   26.9187 C.3     1  UNL1        0.0000
     11 C           4.8054    2.0121   27.9478 C.2     1  UNL1        0.0000
     12 C           5.2467    2.1003   29.2554 C.2     1  UNL1        0.0000
     13 C           6.4436    2.7528   29.5100 C.2     1  UNL1        0.0000
     14 C           7.1572    3.2534   28.4372 C.2     1  UNL1        0.0000
     15 C           6.8567    7.6177   26.7003 C.3     1  UNL1        0.0000
     16 C           5.3901    7.5033   24.0020 C.3     1  UNL1        0.0000
     17 C           3.8846    6.8139   26.6093 C.3     1  UNL1        0.0000
     18 C           6.7987    4.6531   21.7247 C.3     1  UNL1        0.0000
     19 C           6.9762    1.5699   21.3906 C.3     1  UNL1        0.0000
     20 C           9.5061    3.1529   22.2816 C.3     1  UNL1        0.0000
     21 H           3.9791    4.3880   25.4772 H       1  UNL1        0.0000
     22 H           4.9091    4.1126   23.9858 H       1  UNL1        0.0000
     23 H           6.7207    1.1097   25.1802 H       1  UNL1        0.0000
     24 H           5.7307    1.4308   23.7470 H       1  UNL1        0.0000
     25 H           3.9128    0.7914   25.4557 H       1  UNL1        0.0000
     26 H           3.0167    2.2744   25.8386 H       1  UNL1        0.0000
     27 H           3.5379    1.9618   24.1904 H       1  UNL1        0.0000
     28 H           3.8729    1.5176   27.7341 H       1  UNL1        0.0000
     29 H           4.6658    1.6742   30.0596 H       1  UNL1        0.0000
     30 H           6.8205    2.8606   30.5146 H       1  UNL1        0.0000
     31 H           8.1019    3.7587   28.6049 H       1  UNL1        0.0000
     32 H           6.5298    8.6505   26.7624 H       1  UNL1        0.0000
     33 H           6.9766    7.2579   27.7185 H       1  UNL1        0.0000
     34 H           7.8235    7.6136   26.2057 H       1  UNL1        0.0000
     35 H           5.0034    8.5115   24.1150 H       1  UNL1        0.0000
     36 H           6.3562    7.5746   23.5090 H       1  UNL1        0.0000
     37 H           4.7179    6.9673   23.3377 H       1  UNL1        0.0000
     38 H           3.7533    7.8287   26.9688 H       1  UNL1        0.0000
     39 H           3.8100    6.1512   27.4677 H       1  UNL1        0.0000
     40 H           3.0492    6.5970   25.9510 H       1  UNL1        0.0000
     41 H           7.2362    4.9284   20.7703 H       1  UNL1        0.0000
     42 H           6.9672    5.4698   22.4235 H       1  UNL1        0.0000
     43 H           5.7271    4.5522   21.5728 H       1  UNL1        0.0000
     44 H           7.3558    1.6360   20.3771 H       1  UNL1        0.0000
     45 H           7.3087    0.6224   21.8035 H       1  UNL1        0.0000
     46 H           5.8928    1.5426   21.3264 H       1  UNL1        0.0000
     47 H           9.7956    3.8108   21.4687 H       1  UNL1        0.0000
     48 H           9.9282    3.5527   23.2039 H       1  UNL1        0.0000
     49 H           9.9589    2.1839   22.0909 H       1  UNL1        0.0000
@<TRIPOS>BOND
     1    44    19    1
     2    41    18    1
     3    46    19    1
     4    19    45    1
     5    19     5    1
     6    47    20    1
     7    43    18    1
     8    18    42    1
     9    18     5    1
    10    49    20    1
    11    20     5    1
    12    20    48    1
    13     5     2    1
    14    37    16    1
    15    36    16    1
    16    24     7    1
    17    22     6    1
    18    16    35    1
    19    16     4    1
    20     2     7    1
    21    27     9    1
    22     7    23    1
    23     7     8    1
    24     6    21    1
    25     6     8    1
    26     6     1    1
    27     9    25    1
    28     9     8    1
    29     9    26    1
    30     8    10    1
    31     1     4    1
    32     4    17    1
    33     4    15    1
    34    40    17    1
    35    34    15    1
    36    17    38    1
    37    17    39    1
    38    15    32    1
    39    15    33    1
    40    10     3    1
    41    10    11    1
    42     3    14    1
    43    28    11    1
    44    11    12    2
    45    14    31    1
    46    14    13    2
    47    12    13    1
    48    12    29    1
    49    13    30    1
