@<TRIPOS>MOLECULE
1,2,3
 49 49 0 0 0
SMALL
GASTEIGER

@<TRIPOS>ATOM
      1 N          22.8094   24.7512   12.3178 N.3     1  UNL1        0.0000
      2 N          21.9682   26.5094   14.9008 N.3     1  UNL1        0.0000
      3 N          24.2395   26.5778   13.6972 N.pl3   1  UNL1        0.0000
      4 SI         23.9425   23.7422   11.5161 Si      1  UNL1        0.0000
      5 SI         22.3339   27.4116   16.3090 Si      1  UNL1        0.0000
      6 C          22.2185   25.8855   11.6793 C.3     1  UNL1        0.0000
      7 C          21.3843   27.1547   13.7680 C.3     1  UNL1        0.0000
      8 C          22.2858   27.2281   12.4789 C.3     1  UNL1        0.0000
      9 C          21.6979   28.3169   11.5745 C.3     1  UNL1        0.0000
     10 C          23.7039   27.4915   12.8798 C.3     1  UNL1        0.0000
     11 C          24.4446   28.6028   12.4718 C.2     1  UNL1        0.0000
     12 C          25.7390   28.7638   12.9269 C.2     1  UNL1        0.0000
     13 C          26.2699   27.8180   13.7971 C.2     1  UNL1        0.0000
     14 C          25.4796   26.7420   14.1506 C.2     1  UNL1        0.0000
     15 C          25.7712   24.2706   11.8159 C.3     1  UNL1        0.0000
     16 C          23.7539   21.9443   12.1455 C.3     1  UNL1        0.0000
     17 C          23.6633   23.7528    9.6167 C.3     1  UNL1        0.0000
     18 C          23.2795   29.0597   15.9667 C.3     1  UNL1        0.0000
     19 C          23.4457   26.3015   17.3993 C.3     1  UNL1        0.0000
     20 C          20.7416   27.9479   17.2405 C.3     1  UNL1        0.0000
     21 H          22.6846   26.0798   10.7002 H       1  UNL1        0.0000
     22 H          21.1468   25.6957   11.4859 H       1  UNL1        0.0000
     23 H          21.1021   28.1915   14.0088 H       1  UNL1        0.0000
     24 H          20.4587   26.6361   13.4636 H       1  UNL1        0.0000
     25 H          21.7184   29.2891   12.0631 H       1  UNL1        0.0000
     26 H          22.2380   28.3813   10.6317 H       1  UNL1        0.0000
     27 H          20.6607   28.0744   11.3506 H       1  UNL1        0.0000
     28 H          24.0189   29.3341   11.8047 H       1  UNL1        0.0000
     29 H          26.3250   29.6158   12.6149 H       1  UNL1        0.0000
     30 H          27.2721   27.9183   14.1829 H       1  UNL1        0.0000
     31 H          25.8314   25.9641   14.8226 H       1  UNL1        0.0000
     32 H          26.4713   23.6281   11.2908 H       1  UNL1        0.0000
     33 H          25.9900   24.2101   12.8798 H       1  UNL1        0.0000
     34 H          25.9602   25.2925   11.4932 H       1  UNL1        0.0000
     35 H          22.9648   21.4057   11.6301 H       1  UNL1        0.0000
     36 H          24.6749   21.3925   11.9884 H       1  UNL1        0.0000
     37 H          23.5407   21.9358   13.2115 H       1  UNL1        0.0000
     38 H          24.1860   22.9293    9.1431 H       1  UNL1        0.0000
     39 H          24.0276   24.6696    9.1636 H       1  UNL1        0.0000
     40 H          22.6101   23.6608    9.3723 H       1  UNL1        0.0000
     41 H          23.2973   29.6926   16.8482 H       1  UNL1        0.0000
     42 H          24.3096   28.8865   15.6664 H       1  UNL1        0.0000
     43 H          22.8004   29.6277   15.1733 H       1  UNL1        0.0000
     44 H          22.9317   25.9838   18.3003 H       1  UNL1        0.0000
     45 H          24.3406   26.8304   17.7122 H       1  UNL1        0.0000
     46 H          23.7504   25.4128   16.8412 H       1  UNL1        0.0000
     47 H          20.9801   28.3672   18.2125 H       1  UNL1        0.0000
     48 H          20.2019   28.7084   16.6835 H       1  UNL1        0.0000
     49 H          20.0646   27.1137   17.3958 H       1  UNL1        0.0000
@<TRIPOS>BOND
     1    38    17    1
     2    39    17    1
     3    40    17    1
     4    17     4    1
     5    26     9    1
     6    21     6    1
     7    32    15    1
     8    27     9    1
     9    22     6    1
    10    34    15    1
    11     4    15    1
    12     4    16    1
    13     4     1    1
    14     9    25    1
    15     9     8    1
    16    35    16    1
    17     6     1    1
    18     6     8    1
    19    28    11    1
    20    15    33    1
    21    36    16    1
    22    16    37    1
    23    11    10    1
    24    11    12    2
    25     8    10    1
    26     8     7    1
    27    29    12    1
    28    10     3    1
    29    12    13    1
    30    24     7    1
    31     3    14    1
    32     7    23    1
    33     7     2    1
    34    13    14    2
    35    13    30    1
    36    14    31    1
    37     2     5    1
    38    43    18    1
    39    42    18    1
    40    18     5    1
    41    18    41    1
    42     5    20    1
    43     5    19    1
    44    48    20    1
    45    46    19    1
    46    20    49    1
    47    20    47    1
    48    19    45    1
    49    19    44    1
