@<TRIPOS>MOLECULE
1,2,3
 49 49 0 0 0
SMALL
GASTEIGER

@<TRIPOS>ATOM
      1 N           6.3777    7.3196    6.9003 N.3     1  UNL1        0.0000
      2 N           5.2629    8.1802    4.2746 N.3     1  UNL1        0.0000
      3 N           5.9234   10.2601    5.6913 N.ar    1  UNL1        0.0000
      4 SI          6.3609    5.6936    7.4964 Si      1  UNL1        0.0000
      5 SI          4.7618    8.3529    2.6344 Si      1  UNL1        0.0000
      6 C           5.4507    8.2194    7.5198 C.3     1  UNL1        0.0000
      7 C           4.2525    7.8494    5.2469 C.3     1  UNL1        0.0000
      8 C           4.3175    8.7100    6.5564 C.3     1  UNL1        0.0000
      9 C           2.9703    8.5934    7.2738 C.3     1  UNL1        0.0000
     10 C           4.6589   10.1001    6.1256 C.ar    1  UNL1        0.0000
     11 C           3.7415   11.1469    6.1293 C.ar    1  UNL1        0.0000
     12 C           4.1256   12.4043    5.7046 C.ar    1  UNL1        0.0000
     13 C           5.4361   12.5781    5.2895 C.ar    1  UNL1        0.0000
     14 C           6.2845   11.4871    5.3030 C.ar    1  UNL1        0.0000
     15 C           7.9689    4.7908    7.0291 C.3     1  UNL1        0.0000
     16 C           6.2211    5.7292    9.4122 C.3     1  UNL1        0.0000
     17 C           4.8831    4.6162    6.8854 C.3     1  UNL1        0.0000
     18 C           5.5709    9.8820    1.8020 C.3     1  UNL1        0.0000
     19 C           2.8772    8.7087    2.5137 C.3     1  UNL1        0.0000
     20 C           5.0690    6.7819    1.5798 C.3     1  UNL1        0.0000
     21 H           5.9924    9.1045    7.9120 H       1  UNL1        0.0000
     22 H           4.9662    7.7522    8.3833 H       1  UNL1        0.0000
     23 H           3.2498    8.0085    4.8350 H       1  UNL1        0.0000
     24 H           4.3295    6.7928    5.5401 H       1  UNL1        0.0000
     25 H           2.1434    8.8930    6.6337 H       1  UNL1        0.0000
     26 H           2.9590    9.2008    8.1772 H       1  UNL1        0.0000
     27 H           2.8079    7.5555    7.5562 H       1  UNL1        0.0000
     28 H           2.7338   10.9819    6.4705 H       1  UNL1        0.0000
     29 H           3.4260   13.2260    5.7049 H       1  UNL1        0.0000
     30 H           5.8006   13.5383    4.9618 H       1  UNL1        0.0000
     31 H           7.3081   11.6235    4.9843 H       1  UNL1        0.0000
     32 H           7.7586    3.7948    6.6566 H       1  UNL1        0.0000
     33 H           8.6294    4.6789    7.8819 H       1  UNL1        0.0000
     34 H           8.4925    5.3325    6.2536 H       1  UNL1        0.0000
     35 H           6.5965    4.8045    9.8364 H       1  UNL1        0.0000
     36 H           6.7948    6.5461    9.8397 H       1  UNL1        0.0000
     37 H           5.1933    5.8354    9.7457 H       1  UNL1        0.0000
     38 H           4.9447    3.6212    7.3161 H       1  UNL1        0.0000
     39 H           3.9202    5.0291    7.1770 H       1  UNL1        0.0000
     40 H           4.8806    4.4995    5.8046 H       1  UNL1        0.0000
     41 H           4.9405   10.2200    0.9863 H       1  UNL1        0.0000
     42 H           5.6933   10.7208    2.4837 H       1  UNL1        0.0000
     43 H           6.5336    9.6428    1.3686 H       1  UNL1        0.0000
     44 H           2.6104    8.9620    1.4931 H       1  UNL1        0.0000
     45 H           2.5787    9.5446    3.1414 H       1  UNL1        0.0000
     46 H           2.2793    7.8468    2.7931 H       1  UNL1        0.0000
     47 H           4.6446    6.9006    0.5883 H       1  UNL1        0.0000
     48 H           6.1272    6.5771    1.4584 H       1  UNL1        0.0000
     49 H           4.6102    5.9063    2.0303 H       1  UNL1        0.0000
@<TRIPOS>BOND
     1    47    20    1
     2    41    18    1
     3    43    18    1
     4    48    20    1
     5    44    19    1
     6    20    49    1
     7    20     5    1
     8    18    42    1
     9    18     5    1
    10    19     5    1
    11    19    46    1
    12    19    45    1
    13     5     2    1
    14     2     7    1
    15    23     7    1
    16    30    13    1
    17    31    14    1
    18     7    24    1
    19     7     8    1
    20    13    14   ar
    21    13    12   ar
    22    14     3   ar
    23     3    10   ar
    24    12    29    1
    25    12    11   ar
    26    40    17    1
    27    10    11   ar
    28    10     8    1
    29    11    28    1
    30    34    15    1
    31     8     9    1
    32     8     6    1
    33    25     9    1
    34    32    15    1
    35    17    39    1
    36    17    38    1
    37    17     4    1
    38     1     4    1
    39     1     6    1
    40    15     4    1
    41    15    33    1
    42     9    27    1
    43     9    26    1
    44     4    16    1
    45     6    21    1
    46     6    22    1
    47    16    37    1
    48    16    35    1
    49    16    36    1
