@<TRIPOS>MOLECULE
1,2,3
 45 44 0 0 0
SMALL
GASTEIGER

@<TRIPOS>ATOM
      1 N          10.7007   11.1163    5.7280 N.3     1  UNL1        0.0000
      2 N           9.6140   10.2400    2.7543 N.3     1  UNL1        0.0000
      3 N          10.1001    8.6524    4.7935 N.3     1  UNL1        0.0000
      4 SI         11.3864   12.5080    6.4877 Si      1  UNL1        0.0000
      5 SI          8.6569   11.4571    2.0274 Si      1  UNL1        0.0000
      6 C           9.5376   10.5029    6.3216 C.3     1  UNL1        0.0000
      7 C           8.9965    9.3827    5.4215 C.3     1  UNL1        0.0000
      8 C           9.4690    8.8559    2.3993 C.3     1  UNL1        0.0000
      9 C           9.6229    7.9119    3.6292 C.3     1  UNL1        0.0000
     10 C          10.7249    7.7659    5.7657 C.3     1  UNL1        0.0000
     11 C          10.8654   14.2113    5.7855 C.3     1  UNL1        0.0000
     12 C          10.9153   12.4926    8.3557 C.3     1  UNL1        0.0000
     13 C          13.3061   12.4911    6.4525 C.3     1  UNL1        0.0000
     14 C           9.1033   13.0126    3.0261 C.3     1  UNL1        0.0000
     15 C           8.9157   11.6693    0.1323 C.3     1  UNL1        0.0000
     16 C           6.7734   11.0864    2.2339 C.3     1  UNL1        0.0000
     17 H           9.7840   10.0920    7.3167 H       1  UNL1        0.0000
     18 H           8.7192   11.2256    6.4846 H       1  UNL1        0.0000
     19 H           8.4014    9.8367    4.6244 H       1  UNL1        0.0000
     20 H           8.3554    8.6964    6.0049 H       1  UNL1        0.0000
     21 H           8.4867    8.6650    1.9399 H       1  UNL1        0.0000
     22 H          10.2191    8.5703    1.6369 H       1  UNL1        0.0000
     23 H          10.3438    7.1201    3.3972 H       1  UNL1        0.0000
     24 H           8.6609    7.4217    3.8561 H       1  UNL1        0.0000
     25 H          11.5553    7.2210    5.3109 H       1  UNL1        0.0000
     26 H          11.1118    8.3528    6.5993 H       1  UNL1        0.0000
     27 H          10.0049    7.0309    6.1605 H       1  UNL1        0.0000
     28 H          11.3209   15.0188    6.3513 H       1  UNL1        0.0000
     29 H          11.2072   14.2925    4.7570 H       1  UNL1        0.0000
     30 H           9.7909   14.3701    5.8007 H       1  UNL1        0.0000
     31 H          11.3927   13.3130    8.8793 H       1  UNL1        0.0000
     32 H          11.2180   11.5735    8.8492 H       1  UNL1        0.0000
     33 H           9.8444   12.6002    8.4919 H       1  UNL1        0.0000
     34 H          13.6732   13.4525    6.7955 H       1  UNL1        0.0000
     35 H          13.7565   11.7343    7.0897 H       1  UNL1        0.0000
     36 H          13.6585   12.3524    5.4352 H       1  UNL1        0.0000
     37 H           8.5100   13.8738    2.7374 H       1  UNL1        0.0000
     38 H          10.1543   13.2603    2.8917 H       1  UNL1        0.0000
     39 H           8.9489   12.8289    4.0888 H       1  UNL1        0.0000
     40 H           8.6255   12.6598   -0.2035 H       1  UNL1        0.0000
     41 H           9.9572   11.5198   -0.1336 H       1  UNL1        0.0000
     42 H           8.3269   10.9492   -0.4296 H       1  UNL1        0.0000
     43 H           6.1746   11.8341    1.7253 H       1  UNL1        0.0000
     44 H           6.4710   11.0822    3.2777 H       1  UNL1        0.0000
     45 H           6.5065   10.1218    1.8106 H       1  UNL1        0.0000
@<TRIPOS>BOND
     1    42    15    1
     2    40    15    1
     3    41    15    1
     4    15     5    1
     5    22     8    1
     6    43    16    1
     7    45    16    1
     8    21     8    1
     9     5    16    1
    10     5     2    1
    11     5    14    1
    12    16    44    1
    13     8     2    1
    14     8     9    1
    15    37    14    1
    16    38    14    1
    17    14    39    1
    18    23     9    1
    19     9    24    1
    20     9     3    1
    21    19     7    1
    22    29    11    1
    23     3     7    1
    24     3    10    1
    25    25    10    1
    26     7    20    1
    27     7     6    1
    28    36    13    1
    29     1     6    1
    30     1     4    1
    31    10    27    1
    32    10    26    1
    33    11    30    1
    34    11    28    1
    35    11     4    1
    36     6    18    1
    37     6    17    1
    38    13     4    1
    39    13    34    1
    40    13    35    1
    41     4    12    1
    42    12    33    1
    43    12    32    1
    44    12    31    1
