@<TRIPOS>MOLECULE
1,2,3
 45 44 0 0 0
SMALL
GASTEIGER

@<TRIPOS>ATOM
      1 N           3.6937   -3.2830   10.9931 N.3     1  UNL1        0.0000
      2 N           6.9481   -3.3790   10.8665 N.3     1  UNL1        0.0000
      3 N           5.3779   -3.5455   12.9582 N.3     1  UNL1        0.0000
      4 SI          3.1114   -3.7503    9.4349 Si      1  UNL1        0.0000
      5 SI          8.3751   -2.7646   10.1078 Si      1  UNL1        0.0000
      6 C           3.0537   -3.7462   12.2036 C.3     1  UNL1        0.0000
      7 C           3.9900   -3.5360   13.4125 C.3     1  UNL1        0.0000
      8 C           5.7536   -4.8469   12.3986 C.3     1  UNL1        0.0000
      9 C           6.9999   -4.6664   11.5192 C.3     1  UNL1        0.0000
     10 C           6.2978   -3.1792   14.0283 C.3     1  UNL1        0.0000
     11 C           1.9197   -2.4627    8.6627 C.3     1  UNL1        0.0000
     12 C           2.1783   -5.4255    9.5257 C.3     1  UNL1        0.0000
     13 C           4.6602   -3.9811    8.3257 C.3     1  UNL1        0.0000
     14 C           8.7708   -1.0781   10.9164 C.3     1  UNL1        0.0000
     15 C           9.8757   -3.9163   10.4148 C.3     1  UNL1        0.0000
     16 C           8.1857   -2.5965    8.2086 C.3     1  UNL1        0.0000
     17 H           2.7903   -4.8123   12.1216 H       1  UNL1        0.0000
     18 H           2.1098   -3.2119   12.3960 H       1  UNL1        0.0000
     19 H           3.8132   -4.3142   14.1743 H       1  UNL1        0.0000
     20 H           3.7910   -2.5582   13.8644 H       1  UNL1        0.0000
     21 H           5.9387   -5.5815   13.2003 H       1  UNL1        0.0000
     22 H           4.9368   -5.2067   11.7692 H       1  UNL1        0.0000
     23 H           7.9042   -4.7564   12.1404 H       1  UNL1        0.0000
     24 H           7.0395   -5.4920   10.7888 H       1  UNL1        0.0000
     25 H           7.2987   -3.0376   13.6166 H       1  UNL1        0.0000
     26 H           6.3350   -3.9617   14.8014 H       1  UNL1        0.0000
     27 H           5.9854   -2.2463   14.4966 H       1  UNL1        0.0000
     28 H           2.4504   -1.5390    8.4474 H       1  UNL1        0.0000
     29 H           1.0903   -2.2231    9.3225 H       1  UNL1        0.0000
     30 H           1.5020   -2.8258    7.7292 H       1  UNL1        0.0000
     31 H           2.7910   -6.2158    9.9505 H       1  UNL1        0.0000
     32 H           1.2776   -5.3433   10.1246 H       1  UNL1        0.0000
     33 H           1.8790   -5.7447    8.5340 H       1  UNL1        0.0000
     34 H           5.5699   -4.0401    8.9305 H       1  UNL1        0.0000
     35 H           4.7665   -3.1338    7.6529 H       1  UNL1        0.0000
     36 H           4.5938   -4.8767    7.7150 H       1  UNL1        0.0000
     37 H           7.9464   -0.3978   10.7233 H       1  UNL1        0.0000
     38 H           8.9020   -1.1551   11.9940 H       1  UNL1        0.0000
     39 H           9.6690   -0.6330   10.5025 H       1  UNL1        0.0000
     40 H           9.6822   -4.9236   10.0621 H       1  UNL1        0.0000
     41 H          10.1342   -3.9771   11.4672 H       1  UNL1        0.0000
     42 H          10.7487   -3.5484    9.8881 H       1  UNL1        0.0000
     43 H           8.0995   -3.5627    7.7186 H       1  UNL1        0.0000
     44 H           9.0451   -2.0886    7.7831 H       1  UNL1        0.0000
     45 H           7.3032   -2.0145    7.9562 H       1  UNL1        0.0000
@<TRIPOS>BOND
     1    35    13    1
     2    36    13    1
     3    43    16    1
     4    30    11    1
     5    44    16    1
     6    45    16    1
     7    16     5    1
     8    13    34    1
     9    13     4    1
    10    28    11    1
    11    33    12    1
    12    11    29    1
    13    11     4    1
    14     4    12    1
    15     4     1    1
    16    12    31    1
    17    12    32    1
    18    42    15    1
    19    40    15    1
    20     5    15    1
    21     5     2    1
    22     5    14    1
    23    15    41    1
    24    39    14    1
    25    37    14    1
    26    24     9    1
    27     2     9    1
    28    14    38    1
    29     1     6    1
    30     9    23    1
    31     9     8    1
    32    22     8    1
    33    17     6    1
    34     6    18    1
    35     6     7    1
    36     8     3    1
    37     8    21    1
    38     3     7    1
    39     3    10    1
    40     7    20    1
    41     7    19    1
    42    25    10    1
    43    10    27    1
    44    10    26    1
