@<TRIPOS>MOLECULE
1,2,3
 45 44 0 0 0
SMALL
GASTEIGER

@<TRIPOS>ATOM
      1 N          13.8694    9.9282   11.0460 N.3     1  UNL1        0.0000
      2 N          13.8476    6.4537   10.1540 N.3     1  UNL1        0.0000
      3 N          15.7819    8.2407   10.7367 N.3     1  UNL1        0.0000
      4 SI         13.2475   11.5244   10.9102 Si      1  UNL1        0.0000
      5 SI         12.6165    5.2702    9.9069 Si      1  UNL1        0.0000
      6 C          14.5507    9.6514   12.2875 C.3     1  UNL1        0.0000
      7 C          15.4240    8.3933   12.1425 C.3     1  UNL1        0.0000
      8 C          16.2615    6.8950   10.4506 C.3     1  UNL1        0.0000
      9 C          15.1129    5.8879   10.5819 C.3     1  UNL1        0.0000
     10 C          16.8007    9.2261   10.3878 C.3     1  UNL1        0.0000
     11 C          12.2734   11.7586    9.2935 C.3     1  UNL1        0.0000
     12 C          12.1093   11.9762   12.4006 C.3     1  UNL1        0.0000
     13 C          14.6518   12.8451   11.0001 C.3     1  UNL1        0.0000
     14 C          12.3361    4.2204   11.5062 C.3     1  UNL1        0.0000
     15 C          10.9117    5.9859    9.4448 C.3     1  UNL1        0.0000
     16 C          13.1175    3.9605    8.5861 C.3     1  UNL1        0.0000
     17 H          15.1841   10.4994   12.5893 H       1  UNL1        0.0000
     18 H          13.8308    9.4978   13.1149 H       1  UNL1        0.0000
     19 H          16.3267    8.4674   12.7749 H       1  UNL1        0.0000
     20 H          14.8605    7.5119   12.4546 H       1  UNL1        0.0000
     21 H          17.0929    6.6155   11.1222 H       1  UNL1        0.0000
     22 H          16.6285    6.8816    9.4211 H       1  UNL1        0.0000
     23 H          15.3803    5.0056    9.9830 H       1  UNL1        0.0000
     24 H          15.0464    5.5336   11.6278 H       1  UNL1        0.0000
     25 H          17.6970    9.0955   11.0133 H       1  UNL1        0.0000
     26 H          16.4038   10.2288   10.5378 H       1  UNL1        0.0000
     27 H          17.0862    9.1156    9.3435 H       1  UNL1        0.0000
     28 H          11.2477   12.0496    9.4960 H       1  UNL1        0.0000
     29 H          12.7149   12.5391    8.6849 H       1  UNL1        0.0000
     30 H          12.2547   10.8491    8.7002 H       1  UNL1        0.0000
     31 H          11.2768   11.2867   12.5096 H       1  UNL1        0.0000
     32 H          11.6958   12.9731   12.2888 H       1  UNL1        0.0000
     33 H          12.6682   11.9627   13.3321 H       1  UNL1        0.0000
     34 H          14.2430   13.8383   10.8442 H       1  UNL1        0.0000
     35 H          15.1318   12.8507   11.9749 H       1  UNL1        0.0000
     36 H          15.4260   12.6920   10.2536 H       1  UNL1        0.0000
     37 H          13.2569    3.7523   11.8412 H       1  UNL1        0.0000
     38 H          11.9453    4.8103   12.3310 H       1  UNL1        0.0000
     39 H          11.6247    3.4237   11.3162 H       1  UNL1        0.0000
     40 H          11.0054    6.9080    8.8810 H       1  UNL1        0.0000
     41 H          10.3705    5.2740    8.8319 H       1  UNL1        0.0000
     42 H          10.3039    6.1813   10.3230 H       1  UNL1        0.0000
     43 H          12.3252    3.2308    8.4492 H       1  UNL1        0.0000
     44 H          14.0062    3.4126    8.8865 H       1  UNL1        0.0000
     45 H          13.3202    4.4110    7.6198 H       1  UNL1        0.0000
@<TRIPOS>BOND
     1    45    16    1
     2    43    16    1
     3    16    44    1
     4    16     5    1
     5    29    11    1
     6    30    11    1
     7    41    15    1
     8    40    15    1
     9    11    28    1
    10    11     4    1
    11    27    10    1
    12    22     8    1
    13    15     5    1
    14    15    42    1
    15     5     2    1
    16     5    14    1
    17    23     9    1
    18     2     9    1
    19    36    13    1
    20    10    26    1
    21    10     3    1
    22    10    25    1
    23     8     9    1
    24     8     3    1
    25     8    21    1
    26     9    24    1
    27     3     7    1
    28    34    13    1
    29     4    13    1
    30     4     1    1
    31     4    12    1
    32    13    35    1
    33     1     6    1
    34    39    14    1
    35    14    37    1
    36    14    38    1
    37     7     6    1
    38     7    20    1
    39     7    19    1
    40     6    17    1
    41     6    18    1
    42    32    12    1
    43    12    31    1
    44    12    33    1
