@<TRIPOS>MOLECULE
1,2,3
 45 44 0 0 0
SMALL
GASTEIGER

@<TRIPOS>ATOM
      1 N           6.5249    4.0766    3.6137 N.3     1  UNL1        0.0000
      2 N           3.2691    4.1960    3.8305 N.3     1  UNL1        0.0000
      3 N           5.0243    3.9292    5.7180 N.3     1  UNL1        0.0000
      4 SI          7.9775    4.6896    2.9059 Si      1  UNL1        0.0000
      5 SI          2.6288    3.6684    2.3131 Si      1  UNL1        0.0000
      6 C           6.5302    2.7562    4.1951 C.3     1  UNL1        0.0000
      7 C           5.3366    2.6121    5.1552 C.3     1  UNL1        0.0000
      8 C           3.6622    3.9775    6.2406 C.3     1  UNL1        0.0000
      9 C           2.6652    3.7852    5.0770 C.3     1  UNL1        0.0000
     10 C           6.0091    4.2798    6.7340 C.3     1  UNL1        0.0000
     11 C           9.4932    3.6218    3.3905 C.3     1  UNL1        0.0000
     12 C           8.2587    6.4291    3.6460 C.3     1  UNL1        0.0000
     13 C           7.9222    4.7218    0.9907 C.3     1  UNL1        0.0000
     14 C           1.6731    2.0166    2.5112 C.3     1  UNL1        0.0000
     15 C           1.4249    4.9412    1.5356 C.3     1  UNL1        0.0000
     16 C           4.1319    3.3496    1.1613 C.3     1  UNL1        0.0000
     17 H           7.4663    2.5742    4.7438 H       1  UNL1        0.0000
     18 H           6.4630    1.9697    3.4236 H       1  UNL1        0.0000
     19 H           5.5572    1.8859    5.9550 H       1  UNL1        0.0000
     20 H           4.4733    2.2588    4.5877 H       1  UNL1        0.0000
     21 H           3.5095    4.9607    6.6986 H       1  UNL1        0.0000
     22 H           3.5028    3.2075    7.0145 H       1  UNL1        0.0000
     23 H           1.7542    4.3639    5.2988 H       1  UNL1        0.0000
     24 H           2.3537    2.7302    5.0300 H       1  UNL1        0.0000
     25 H           5.7698    5.2445    7.1827 H       1  UNL1        0.0000
     26 H           6.9969    4.3484    6.2745 H       1  UNL1        0.0000
     27 H           6.0390    3.5229    7.5325 H       1  UNL1        0.0000
     28 H           9.3827    2.5978    3.0499 H       1  UNL1        0.0000
     29 H          10.3922    4.0207    2.9351 H       1  UNL1        0.0000
     30 H           9.6561    3.6015    4.4639 H       1  UNL1        0.0000
     31 H           7.4747    7.0977    3.3027 H       1  UNL1        0.0000
     32 H           9.2063    6.8486    3.3260 H       1  UNL1        0.0000
     33 H           8.2485    6.4180    4.7353 H       1  UNL1        0.0000
     34 H           7.0677    5.2898    0.6293 H       1  UNL1        0.0000
     35 H           8.8158    5.1891    0.5895 H       1  UNL1        0.0000
     36 H           7.8572    3.7212    0.5707 H       1  UNL1        0.0000
     37 H           2.2835    1.2356    2.9559 H       1  UNL1        0.0000
     38 H           0.7903    2.1433    3.1288 H       1  UNL1        0.0000
     39 H           1.3418    1.6580    1.5435 H       1  UNL1        0.0000
     40 H           1.9508    5.8564    1.2739 H       1  UNL1        0.0000
     41 H           0.6152    5.2040    2.2111 H       1  UNL1        0.0000
     42 H           0.9797    4.5497    0.6266 H       1  UNL1        0.0000
     43 H           4.1628    4.0986    0.3728 H       1  UNL1        0.0000
     44 H           5.0736    3.4180    1.7157 H       1  UNL1        0.0000
     45 H           4.0835    2.3754    0.6840 H       1  UNL1        0.0000
@<TRIPOS>BOND
     1    43    16    1
     2    36    13    1
     3    35    13    1
     4    42    15    1
     5    34    13    1
     6    45    16    1
     7    13     4    1
     8    16    44    1
     9    16     5    1
    10    40    15    1
    11    15    41    1
    12    15     5    1
    13    39    14    1
    14     5    14    1
    15     5     2    1
    16    14    37    1
    17    14    38    1
    18     4    11    1
    19     4     1    1
    20     4    12    1
    21    29    11    1
    22    28    11    1
    23    31    12    1
    24    32    12    1
    25    11    30    1
    26    18     6    1
    27     1     6    1
    28    12    33    1
    29     2     9    1
    30     6    17    1
    31     6     7    1
    32    20     7    1
    33    24     9    1
    34     9    23    1
    35     9     8    1
    36     7     3    1
    37     7    19    1
    38     3     8    1
    39     3    10    1
    40     8    21    1
    41     8    22    1
    42    26    10    1
    43    10    25    1
    44    10    27    1
