@<TRIPOS>MOLECULE
1,2,17
 29 31 0 0 0
SMALL
GASTEIGER

@<TRIPOS>ATOM
      1 N           6.3465    2.2665    3.1376 N.pl3   1  UNL1       -0.2427
      2 N           7.9761    3.7943    3.9830 N.pl3   1  UNL1       -0.2291
      3 C           5.5265    1.2969    2.7248 C.3     1  UNL1        0.0844
      4 H           5.8868    0.2880    2.8835 H       1  UNL1        0.0584
      5 C           4.3050    1.5312    2.1394 C.2     1  UNL1       -0.0600
      6 H           3.6851    0.7081    1.8211 H       1  UNL1        0.0592
      7 C           3.8811    2.8518    1.9666 C.2     1  UNL1       -0.0623
      8 H           2.9258    3.0659    1.5132 H       1  UNL1        0.0616
      9 C           4.7090    3.8676    2.3883 C.2     1  UNL1       -0.0408
     10 H           4.4192    4.9004    2.2758 H       1  UNL1        0.0634
     11 C           5.9404    3.5563    2.9666 C.2     1  UNL1        0.0578
     12 C           6.9237    4.4789    3.4543 C.3     1  UNL1        0.1427
     13 C           6.9055    5.8661    3.4408 C.2     1  UNL1       -0.0507
     14 H           6.0665    6.3951    3.0170 H       1  UNL1        0.0598
     15 C           7.9760    6.5649    3.9830 C.2     1  UNL1       -0.0613
     16 H           7.9760    7.6437    3.9829 H       1  UNL1        0.0616
     17 N           9.6056    2.2665    4.8285 N.pl3   1  UNL1       -0.2392
     18 C          10.4256    1.2970    5.2413 C.3     1  UNL1        0.0848
     19 H          10.0655    0.2880    5.0825 H       1  UNL1        0.0584
     20 C          11.6471    1.5314    5.8267 C.2     1  UNL1       -0.0600
     21 H          12.2670    0.7082    6.1451 H       1  UNL1        0.0592
     22 C          12.0709    2.8520    5.9996 C.2     1  UNL1       -0.0620
     23 H          13.0262    3.0661    6.4531 H       1  UNL1        0.0616
     24 C          11.2431    3.8677    5.5778 C.2     1  UNL1       -0.0375
     25 H          11.5328    4.9005    5.6903 H       1  UNL1        0.0637
     26 C          10.0117    3.5564    4.9995 C.2     1  UNL1        0.0710
     27 C           9.0283    4.4790    4.5117 C.2     1  UNL1        0.0718
     28 C           9.0466    5.8662    4.5251 C.2     1  UNL1       -0.0374
     29 H           9.8856    6.3952    4.9489 H       1  UNL1        0.0637
@<TRIPOS>BOND
     1     8     7    1
     2     6     5    1
     3     7     5    2
     4     7     9    1
     5     5     3    1
     6    10     9    1
     7     9    11    2
     8     3     4    1
     9     3     1    1
    10    11     1    1
    11    11    12    1
    12    14    13    1
    13    13    12    1
    14    13    15    2
    15    12     2    1
    16    16    15    1
    17    15    28    1
    18     2    27    1
    19    27    28    2
    20    27    26    1
    21    28    29    1
    22    17    26    1
    23    17    18    1
    24    26    24    2
    25    19    18    1
    26    18    20    1
    27    24    25    1
    28    24    22    1
    29    20    22    2
    30    20    21    1
    31    22    23    1
