@<TRIPOS>MOLECULE
3,4,5
 67 67 0 0 0
SMALL
GASTEIGER

@<TRIPOS>ATOM
      1 SI         10.9488    0.0903    5.8338 Si      1  UNL1        0.0000
      2 SI          8.1174    2.3446    0.6876 Si      1  UNL1        0.0000
      3 N          10.3055    0.2953    4.2725 N.3     1  UNL1        0.0000
      4 N           8.3820    1.3047    2.0167 N.3     1  UNL1        0.0000
      5 N           7.7367    0.3292    4.9111 N.pl3   1  UNL1        0.0000
      6 C          10.0294   -0.7879    3.3818 C.3     1  UNL1        0.0000
      7 H          10.4112   -1.7381    3.7832 H       1  UNL1        0.0000
      8 H          10.5237   -0.6273    2.4083 H       1  UNL1        0.0000
      9 C           8.5061   -1.0357    3.0511 C.3     1  UNL1        0.0000
     10 C           8.0008   -0.0809    1.9244 C.3     1  UNL1        0.0000
     11 H           8.3766   -0.5095    0.9831 H       1  UNL1        0.0000
     12 H           6.8967   -0.1879    1.8877 H       1  UNL1        0.0000
     13 C           8.4114   -2.4584    2.4785 C.3     1  UNL1        0.0000
     14 H           8.7101   -3.2037    3.2122 H       1  UNL1        0.0000
     15 H           9.0841   -2.5476    1.6280 H       1  UNL1        0.0000
     16 H           7.4028   -2.6766    2.1320 H       1  UNL1        0.0000
     17 C           7.6918   -0.8731    4.3052 C.3     1  UNL1        0.0000
     18 C           6.9559   -1.9218    4.8625 C.2     1  UNL1        0.0000
     19 H           6.8986   -2.8757    4.3677 H       1  UNL1        0.0000
     20 C           6.2742   -1.7417    6.0504 C.2     1  UNL1        0.0000
     21 H           5.6869   -2.5438    6.4711 H       1  UNL1        0.0000
     22 C           6.3767   -0.5174    6.6958 C.2     1  UNL1        0.0000
     23 H           5.8886   -0.3331    7.6387 H       1  UNL1        0.0000
     24 C           7.1195    0.4763    6.0901 C.2     1  UNL1        0.0000
     25 H           7.2128    1.4423    6.5736 H       1  UNL1        0.0000
     26 C          10.1181   -1.3164    6.8689 C.3     1  UNL1        0.0000
     27 H           9.1296   -1.0324    7.2191 H       1  UNL1        0.0000
     28 H          10.7045   -1.5858    7.7402 H       1  UNL1        0.0000
     29 H          10.0033   -2.2139    6.2678 H       1  UNL1        0.0000
     30 C          10.5399    1.7634    6.6742 C.3     1  UNL1        0.0000
     31 H          11.1784    2.5563    6.2879 H       1  UNL1        0.0000
     32 H          10.6815    1.7254    7.7499 H       1  UNL1        0.0000
     33 H           9.4960    2.0296    6.4794 H       1  UNL1        0.0000
     34 C          12.8630   -0.2299    5.8996 C.3     1  UNL1        0.0000
     35 C          13.3979   -0.0698    7.3232 C.3     1  UNL1        0.0000
     36 H          12.9257   -0.7746    8.0033 H       1  UNL1        0.0000
     37 H          13.2145    0.9365    7.6902 H       1  UNL1        0.0000
     38 H          14.4728   -0.2484    7.3457 H       1  UNL1        0.0000
     39 C          13.5856    0.7677    4.9939 C.3     1  UNL1        0.0000
     40 H          14.6616    0.5933    5.0117 H       1  UNL1        0.0000
     41 H          13.4034    1.7908    5.3142 H       1  UNL1        0.0000
     42 H          13.2386    0.6734    3.9684 H       1  UNL1        0.0000
     43 C          13.1805   -1.6441    5.4112 C.3     1  UNL1        0.0000
     44 H          12.8367   -1.7786    4.3882 H       1  UNL1        0.0000
     45 H          12.6972   -2.3902    6.0378 H       1  UNL1        0.0000
     46 H          14.2550   -1.8254    5.4341 H       1  UNL1        0.0000
     47 C           6.2594    2.5173    0.1722 C.3     1  UNL1        0.0000
     48 H           5.7519    1.5575    0.2107 H       1  UNL1        0.0000
     49 H           6.1586    2.8931   -0.8404 H       1  UNL1        0.0000
     50 H           5.7149    3.1988    0.8164 H       1  UNL1        0.0000
     51 C           8.7164    4.0404    1.3411 C.3     1  UNL1        0.0000
     52 H           8.3671    4.2091    2.3639 H       1  UNL1        0.0000
     53 H           8.3344    4.8471    0.7243 H       1  UNL1        0.0000
     54 H           9.8017    4.1133    1.3366 H       1  UNL1        0.0000
     55 C           9.0219    1.8954   -0.9854 C.3     1  UNL1        0.0000
     56 C          10.4498    1.4119   -0.7293 C.3     1  UNL1        0.0000
     57 H          10.9315    1.1322   -1.6673 H       1  UNL1        0.0000
     58 H          10.4535    0.5414   -0.0755 H       1  UNL1        0.0000
     59 H          11.0414    2.1961   -0.2649 H       1  UNL1        0.0000
     60 C           8.2726    0.7968   -1.7443 C.3     1  UNL1        0.0000
     61 H           7.2608    1.1075   -1.9875 H       1  UNL1        0.0000
     62 H           8.2119   -0.1157   -1.1554 H       1  UNL1        0.0000
     63 H           8.7870    0.5615   -2.6767 H       1  UNL1        0.0000
     64 C           9.0960    3.1316   -1.8847 C.3     1  UNL1        0.0000
     65 H           9.6669    3.9213   -1.4044 H       1  UNL1        0.0000
     66 H           8.1033    3.5147   -2.1062 H       1  UNL1        0.0000
     67 H           9.5819    2.8859   -2.8291 H       1  UNL1        0.0000
@<TRIPOS>BOND
     1    67    64    1
     2    63    60    1
     3    66    64    1
     4    61    60    1
     5    64    65    1
     6    64    55    1
     7    60    62    1
     8    60    55    1
     9    57    56    1
    10    55    56    1
    11    55     2    1
    12    49    47    1
    13    56    59    1
    14    56    58    1
    15    47    48    1
    16    47     2    1
    17    47    50    1
    18     2    51    1
    19     2     4    1
    20    53    51    1
    21    11    10    1
    22    54    51    1
    23    51    52    1
    24    15    13    1
    25    12    10    1
    26    10     4    1
    27    10     9    1
    28    16    13    1
    29     8     6    1
    30    13     9    1
    31    13    14    1
    32     9     6    1
    33     9    17    1
    34     6     7    1
    35     6     3    1
    36    42    39    1
    37     3     1    1
    38    17    18    1
    39    17     5    1
    40    19    18    1
    41    44    43    1
    42    18    20    2
    43     5    24    1
    44    39    40    1
    45    39    41    1
    46    39    34    1
    47    43    46    1
    48    43    34    1
    49    43    45    1
    50     1    34    1
    51     1    30    1
    52     1    26    1
    53    34    35    1
    54    20    21    1
    55    20    22    1
    56    24    25    1
    57    24    22    2
    58    29    26    1
    59    31    30    1
    60    33    30    1
    61    30    32    1
    62    22    23    1
    63    26    27    1
    64    26    28    1
    65    35    38    1
    66    35    37    1
    67    35    36    1
