@<TRIPOS>MOLECULE
3,4,5
 67 67 0 0 0
SMALL
GASTEIGER

@<TRIPOS>ATOM
      1 SI          1.2220   14.1762    7.6969 Si      1  UNL1        0.0000
      2 SI          4.3038   19.6827    6.5021 Si      1  UNL1        0.0000
      3 N           2.6697   15.0065    7.3332 N.3     1  UNL1        0.0000
      4 N           4.2928   17.9780    6.5925 N.3     1  UNL1        0.0000
      5 N           1.5972   17.3484    6.5661 N.pl3   1  UNL1        0.0000
      6 C           3.1906   14.9211    5.9944 C.3     1  UNL1        0.0000
      7 H           2.6570   14.1515    5.4238 H       1  UNL1        0.0000
      8 H           4.2513   14.6174    6.0142 H       1  UNL1        0.0000
      9 C           3.1333   16.2172    5.1059 C.3     1  UNL1        0.0000
     10 C           4.3350   17.1812    5.3954 C.3     1  UNL1        0.0000
     11 H           5.2325   16.5374    5.3965 H       1  UNL1        0.0000
     12 H           4.4128   17.8211    4.5089 H       1  UNL1        0.0000
     13 C           3.3201   15.7376    3.6582 C.3     1  UNL1        0.0000
     14 H           4.2607   15.1955    3.5797 H       1  UNL1        0.0000
     15 H           3.3588   16.5729    2.9620 H       1  UNL1        0.0000
     16 H           2.5200   15.0638    3.3593 H       1  UNL1        0.0000
     17 C           1.8448   16.9453    5.3125 C.3     1  UNL1        0.0000
     18 C           0.9394   17.2102    4.2817 C.2     1  UNL1        0.0000
     19 H           1.1451   16.8950    3.2730 H       1  UNL1        0.0000
     20 C          -0.2346   17.8835    4.5540 C.2     1  UNL1        0.0000
     21 H          -0.9401   18.0951    3.7642 H       1  UNL1        0.0000
     22 C          -0.4911   18.2773    5.8616 C.2     1  UNL1        0.0000
     23 H          -1.3996   18.7974    6.1200 H       1  UNL1        0.0000
     24 C           0.4561   17.9888    6.8223 C.2     1  UNL1        0.0000
     25 H           0.3073   18.2799    7.8537 H       1  UNL1        0.0000
     26 C           0.5529   14.9845    9.2894 C.3     1  UNL1        0.0000
     27 H           1.3471   15.5130    9.8107 H       1  UNL1        0.0000
     28 H           0.1324   14.2524    9.9691 H       1  UNL1        0.0000
     29 H          -0.2339   15.6949    9.0594 H       1  UNL1        0.0000
     30 C          -0.1538   14.3172    6.3554 C.3     1  UNL1        0.0000
     31 H          -0.3635   15.3545    6.1156 H       1  UNL1        0.0000
     32 H          -1.0853   13.8682    6.6823 H       1  UNL1        0.0000
     33 H           0.1384   13.8250    5.4324 H       1  UNL1        0.0000
     34 C           1.4673   12.2591    7.9691 C.3     1  UNL1        0.0000
     35 C           2.2635   11.9813    9.2444 C.3     1  UNL1        0.0000
     36 H           3.2464   12.4429    9.1996 H       1  UNL1        0.0000
     37 H           2.4012   10.9082    9.3834 H       1  UNL1        0.0000
     38 H           1.7423   12.3703   10.1140 H       1  UNL1        0.0000
     39 C           0.1144   11.5571    8.0986 C.3     1  UNL1        0.0000
     40 H          -0.4762   12.0010    8.8960 H       1  UNL1        0.0000
     41 H           0.2547   10.5003    8.3277 H       1  UNL1        0.0000
     42 H          -0.4510   11.6277    7.1738 H       1  UNL1        0.0000
     43 C           2.2227   11.6384    6.7926 C.3     1  UNL1        0.0000
     44 H           1.6811   11.7893    5.8612 H       1  UNL1        0.0000
     45 H           2.3467   10.5648    6.9390 H       1  UNL1        0.0000
     46 H           3.2095   12.0847    6.6927 H       1  UNL1        0.0000
     47 C           4.7296   20.3045    8.2555 C.3     1  UNL1        0.0000
     48 H           4.3097   19.6501    9.0115 H       1  UNL1        0.0000
     49 H           4.3235   21.2976    8.4125 H       1  UNL1        0.0000
     50 H           5.7992   20.3652    8.4224 H       1  UNL1        0.0000
     51 C           2.6259   20.4937    5.9984 C.3     1  UNL1        0.0000
     52 H           2.2213   20.0538    5.0907 H       1  UNL1        0.0000
     53 H           2.7209   21.5617    5.8298 H       1  UNL1        0.0000
     54 H           1.8887   20.3534    6.7837 H       1  UNL1        0.0000
     55 C           5.6380   20.4404    5.2979 C.3     1  UNL1        0.0000
     56 C           6.9459   19.6523    5.3852 C.3     1  UNL1        0.0000
     57 H           7.3181   19.6413    6.4073 H       1  UNL1        0.0000
     58 H           7.7101   20.1023    4.7500 H       1  UNL1        0.0000
     59 H           6.7992   18.6242    5.0623 H       1  UNL1        0.0000
     60 C           5.1675   20.4481    3.8425 C.3     1  UNL1        0.0000
     61 H           4.9965   19.4392    3.4732 H       1  UNL1        0.0000
     62 H           5.9190   20.9119    3.2019 H       1  UNL1        0.0000
     63 H           4.2424   21.0087    3.7388 H       1  UNL1        0.0000
     64 C           5.9263   21.8910    5.6921 C.3     1  UNL1        0.0000
     65 H           5.0210   22.4908    5.6492 H       1  UNL1        0.0000
     66 H           6.6565   22.3319    5.0127 H       1  UNL1        0.0000
     67 H           6.3243   21.9495    6.7005 H       1  UNL1        0.0000
@<TRIPOS>BOND
     1    15    13    1
     2    62    60    1
     3    19    18    1
     4    16    13    1
     5    61    60    1
     6    14    13    1
     7    13     9    1
     8    63    60    1
     9    21    20    1
    10    60    55    1
    11    18    20    2
    12    18    17    1
    13    12    10    1
    14    20    22    1
    15    58    56    1
    16    66    64    1
    17    59    56    1
    18    52    51    1
    19     9    17    1
    20     9    10    1
    21     9     6    1
    22    55    56    1
    23    55    64    1
    24    55     2    1
    25    17     5    1
    26    56    57    1
    27    10    11    1
    28    10     4    1
    29     7     6    1
    30    33    30    1
    31    65    64    1
    32    64    67    1
    33    53    51    1
    34    44    43    1
    35    22    23    1
    36    22    24    2
    37     6     8    1
    38     6     3    1
    39    51     2    1
    40    51    54    1
    41    31    30    1
    42    30    32    1
    43    30     1    1
    44     2     4    1
    45     2    47    1
    46     5    24    1
    47    46    43    1
    48    43    45    1
    49    43    34    1
    50    24    25    1
    51    42    39    1
    52     3     1    1
    53     1    34    1
    54     1    26    1
    55    34    39    1
    56    34    35    1
    57    39    41    1
    58    39    40    1
    59    47    49    1
    60    47    50    1
    61    47    48    1
    62    29    26    1
    63    36    35    1
    64    35    37    1
    65    35    38    1
    66    26    27    1
    67    26    28    1
