@<TRIPOS>MOLECULE
1,2,3
 79 81 0 0 0
SMALL
GASTEIGER

@<TRIPOS>ATOM
      1 N           2.6489    5.8097   16.8598 N.pl3   1  UNL1       -0.2352
      2 N           1.8626    6.1400   19.2102 N.pl3   1  UNL1       -0.2154
      3 N           3.1518    4.5152   20.6239 N.pl3   1  UNL1       -0.2171
      4 C           1.4733    7.7972   15.9204 C.3     1  UNL1       -0.0340
      5 H           1.9533    8.7505   16.1464 H       1  UNL1        0.0255
      6 H           0.4004    7.9721   15.8663 H       1  UNL1        0.0255
      7 H           1.8302    7.4545   14.9534 H       1  UNL1        0.0255
      8 C           1.7957    6.8067   16.9995 C.3     1  UNL1        0.1181
      9 C           1.2691    6.9891   18.3205 C.2     1  UNL1        0.0586
     10 C           0.3432    7.9348   18.7546 C.2     1  UNL1       -0.0405
     11 H          -0.1308    8.5970   18.0485 H       1  UNL1        0.0634
     12 C           0.0420    8.0185   20.1066 C.2     1  UNL1       -0.0583
     13 H          -0.6778    8.7430   20.4547 H       1  UNL1        0.0619
     14 C           0.6775    7.1816   21.0134 C.2     1  UNL1       -0.0371
     15 H           0.4625    7.2536   22.0671 H       1  UNL1        0.0637
     16 C           1.5973    6.2455   20.5464 C.2     1  UNL1        0.0720
     17 C           2.3657    5.3132   21.3182 C.2     1  UNL1        0.0510
     18 C           2.2668    5.3091   22.8126 C.3     1  UNL1       -0.0228
     19 H           2.9679    4.6026   23.2489 H       1  UNL1        0.0291
     20 H           1.2557    5.0436   23.1205 H       1  UNL1        0.0291
     21 H           2.4787    6.3051   23.2010 H       1  UNL1        0.0291
     22 C           3.3022    5.6753   15.6100 C.ar    1  UNL1        0.0557
     23 C           2.7807    4.8067   14.6414 C.ar    1  UNL1       -0.0219
     24 C           3.4129    4.7372   13.4085 C.ar    1  UNL1       -0.0565
     25 H           3.0181    4.0942   12.6391 H       1  UNL1        0.0621
     26 C           4.5401    5.4891   13.1422 C.ar    1  UNL1       -0.0611
     27 H           5.0130    5.4278   12.1735 H       1  UNL1        0.0618
     28 C           5.0567    6.3270   14.1111 C.ar    1  UNL1       -0.0565
     29 H           5.9408    6.9033   13.8902 H       1  UNL1        0.0621
     30 C           4.4391    6.4531   15.3456 C.ar    1  UNL1       -0.0219
     31 C           3.9640    3.5785   21.3064 C.ar    1  UNL1        0.0602
     32 C           3.4336    2.3545   21.7378 C.ar    1  UNL1       -0.0216
     33 C           4.2530    1.4874   22.4474 C.ar    1  UNL1       -0.0565
     34 H           3.8539    0.5483   22.7983 H       1  UNL1        0.0621
     35 C           5.5695    1.8071   22.7162 C.ar    1  UNL1       -0.0611
     36 H           6.1871    1.1291   23.2859 H       1  UNL1        0.0618
     37 C           6.0979    2.9919   22.2412 C.ar    1  UNL1       -0.0565
     38 H           7.1321    3.2253   22.4374 H       1  UNL1        0.0621
     39 C           5.3152    3.8877   21.5283 C.ar    1  UNL1       -0.0216
     40 C           1.5304    4.0059   14.9281 C.3     1  UNL1       -0.0197
     41 H           1.5266    3.7844   15.9995 H       1  UNL1        0.0344
     42 C           0.2678    4.8103   14.5959 C.3     1  UNL1       -0.0586
     43 H           0.1376    5.6415   15.2806 H       1  UNL1        0.0235
     44 H          -0.6064    4.1675   14.6746 H       1  UNL1        0.0235
     45 H           0.3196    5.1973   13.5798 H       1  UNL1        0.0235
     46 C           1.4855    2.6814   14.1691 C.3     1  UNL1       -0.0586
     47 H           1.2803    2.8386   13.1127 H       1  UNL1        0.0235
     48 H           0.6950    2.0544   14.5754 H       1  UNL1        0.0235
     49 H           2.4252    2.1501   14.2741 H       1  UNL1        0.0235
     50 C           4.9867    7.4000   16.3906 C.3     1  UNL1       -0.0197
     51 H           4.1916    7.6296   17.1063 H       1  UNL1        0.0344
     52 C           5.4654    8.7237   15.7922 C.3     1  UNL1       -0.0586
     53 H           5.6669    9.4372   16.5889 H       1  UNL1        0.0235
     54 H           4.7093    9.1458   15.1335 H       1  UNL1        0.0235
     55 H           6.3823    8.5921   15.2241 H       1  UNL1        0.0235
     56 C           6.1135    6.7121   17.1632 C.3     1  UNL1       -0.0586
     57 H           5.7358    5.7946   17.6131 H       1  UNL1        0.0235
     58 H           6.4843    7.3677   17.9485 H       1  UNL1        0.0235
     59 H           6.9355    6.4677   16.4949 H       1  UNL1        0.0235
     60 C           2.0128    1.9490   21.4202 C.3     1  UNL1       -0.0197
     61 H           1.5505    2.7351   20.8148 H       1  UNL1        0.0344
     62 C           1.1847    1.7627   22.6942 C.3     1  UNL1       -0.0586
     63 H           0.1534    1.5321   22.4364 H       1  UNL1        0.0235
     64 H           1.1948    2.6618   23.3049 H       1  UNL1        0.0235
     65 H           1.5769    0.9431   23.2914 H       1  UNL1        0.0235
     66 C           2.0076    0.6581   20.5974 C.3     1  UNL1       -0.0586
     67 H           2.6189    0.7707   19.7058 H       1  UNL1        0.0235
     68 H           0.9936    0.4168   20.2865 H       1  UNL1        0.0235
     69 H           2.3931   -0.1764   21.1778 H       1  UNL1        0.0235
     70 C           5.9018    5.1867   21.0243 C.3     1  UNL1       -0.0197
     71 H           5.2224    5.5979   20.2662 H       1  UNL1        0.0344
     72 C           6.0111    6.1969   22.1692 C.3     1  UNL1       -0.0586
     73 H           5.0327    6.4009   22.5974 H       1  UNL1        0.0235
     74 H           6.4305    7.1328   21.8068 H       1  UNL1        0.0235
     75 H           6.6560    5.8116   22.9564 H       1  UNL1        0.0235
     76 C           7.2639    4.9771   20.3610 C.3     1  UNL1       -0.0586
     77 H           8.0255    4.7140   21.0906 H       1  UNL1        0.0235
     78 H           7.5770    5.8932   19.8661 H       1  UNL1        0.0235
     79 H           7.2091    4.1855   19.6170 H       1  UNL1        0.0235
@<TRIPOS>BOND
     1    27    26    1
     2    25    24    1
     3    47    46    1
     4    26    24   ar
     5    26    28   ar
     6    24    23   ar
     7    45    42    1
     8    29    28    1
     9    28    30   ar
    10    46    49    1
    11    46    48    1
    12    46    40    1
    13    42    44    1
    14    42    40    1
    15    42    43    1
    16    23    40    1
    17    23    22   ar
    18    40    41    1
    19     7     4    1
    20    54    52    1
    21    55    52    1
    22    30    22   ar
    23    30    50    1
    24    22     1    1
    25    52    50    1
    26    52    53    1
    27     6     4    1
    28     4     5    1
    29     4     8    1
    30    50    51    1
    31    50    56    1
    32    59    56    1
    33     1     8    1
    34     8     9    1
    35    56    57    1
    36    56    58    1
    37    11    10    1
    38     9    10    2
    39     9     2    1
    40    10    12    1
    41     2    16    1
    42    79    76    1
    43    67    66    1
    44    78    76    1
    45    12    13    1
    46    12    14    2
    47    71    70    1
    48    68    66    1
    49    76    70    1
    50    76    77    1
    51    16    14    1
    52    16    17    2
    53    66    69    1
    54    66    60    1
    55     3    31    1
    56     3    17    1
    57    61    60    1
    58    14    15    1
    59    70    39    1
    60    70    72    1
    61    31    39   ar
    62    31    32   ar
    63    17    18    1
    64    60    32    1
    65    60    62    1
    66    39    37   ar
    67    32    33   ar
    68    74    72    1
    69    72    73    1
    70    72    75    1
    71    37    38    1
    72    37    35   ar
    73    63    62    1
    74    33    35   ar
    75    33    34    1
    76    62    65    1
    77    62    64    1
    78    35    36    1
    79    18    20    1
    80    18    21    1
    81    18    19    1
