@<TRIPOS>MOLECULE
1,2,3
 87 91 0 0 0
SMALL
GASTEIGER

@<TRIPOS>ATOM
      1 N           1.1664    4.3167    7.8203 N.pl3   1  UNL1       -0.2349
      2 N           2.4659    4.1807    5.6444 N.pl3   1  UNL1       -0.2149
      3 N           1.0287    4.6063    3.6090 N.pl3   1  UNL1       -0.2168
      4 C           4.5315    4.1657    4.3706 C.2     1  UNL1       -0.0225
      5 C           3.1414    4.2363    4.4547 C.2     1  UNL1        0.0754
      6 C           3.2173    4.1010    6.7861 C.2     1  UNL1        0.0621
      7 C           4.6101    4.0377    6.7690 C.2     1  UNL1       -0.0259
      8 C           2.4437    4.1271    7.9791 C.3     1  UNL1        0.1214
      9 C           2.2913    4.4303    3.3342 C.2     1  UNL1        0.0543
     10 C           3.1628    3.9454    9.2857 C.3     1  UNL1       -0.0216
     11 H           3.2746    2.8722    9.4703 H       1  UNL1        0.0291
     12 H           2.5762    4.3663   10.1046 H       1  UNL1        0.0291
     13 C          -0.2933    3.3675    9.5464 C.ar    1  UNL1       -0.0219
     14 C           5.2687    4.0622    5.5444 C.2     1  UNL1       -0.0519
     15 H           6.3469    4.0155    5.5071 H       1  UNL1        0.0624
     16 C          -0.0206    5.7747    9.3456 C.ar    1  UNL1       -0.0219
     17 C          -0.5909    4.0138    1.8772 C.ar    1  UNL1       -0.0216
     18 C           5.1776    4.2042    3.0166 C.3     1  UNL1       -0.0255
     19 H           5.2938    3.1778    2.6516 H       1  UNL1        0.0314
     20 H           6.1763    4.6392    3.0936 H       1  UNL1        0.0314
     21 C           0.2050    1.9573    9.3175 C.3     1  UNL1       -0.0197
     22 H           0.9593    1.9836    8.5274 H       1  UNL1        0.0344
     23 C           0.1351    4.9798    2.5897 C.ar    1  UNL1        0.0602
     24 C          -0.0428    6.3440    2.2883 C.ar    1  UNL1       -0.0216
     25 C          -1.7297    5.7561    0.6637 C.ar    1  UNL1       -0.0611
     26 H          -2.4597    6.0582   -0.0725 H       1  UNL1        0.0618
     27 C          -0.3513    2.5398    2.1004 C.3     1  UNL1       -0.0197
     28 H           0.4229    2.4371    2.8640 H       1  UNL1        0.0344
     29 C           0.7748    6.9782    8.8841 C.3     1  UNL1       -0.0197
     30 H           1.3448    6.6943    7.9933 H       1  UNL1        0.0344
     31 C           0.2975    4.4733    8.9094 C.ar    1  UNL1        0.0557
     32 C           4.5506    4.5792    9.2048 C.3     1  UNL1       -0.0466
     33 H           4.4516    5.6508    9.0168 H       1  UNL1        0.0269
     34 H           5.0776    4.4476   10.1522 H       1  UNL1        0.0269
     35 C          -1.2909    3.5837   10.4864 C.ar    1  UNL1       -0.0565
     36 H          -1.7628    2.7378   10.9630 H       1  UNL1        0.0621
     37 C           5.3507    3.9418    8.0711 C.3     1  UNL1       -0.0260
     38 H           6.3280    4.4199    7.9770 H       1  UNL1        0.0314
     39 H           5.5242    2.8847    8.3014 H       1  UNL1        0.0314
     40 C           0.8017    7.4269    2.9274 C.3     1  UNL1       -0.0197
     41 H           1.3669    6.9828    3.7535 H       1  UNL1        0.0344
     42 C           2.9108    4.4208    1.9653 C.3     1  UNL1       -0.0105
     43 H           2.2866    4.9698    1.2577 H       1  UNL1        0.0327
     44 H           2.9632    3.3815    1.6241 H       1  UNL1        0.0327
     45 C          -1.5208    4.4181    0.9306 C.ar    1  UNL1       -0.0565
     46 H          -2.0851    3.6745    0.3881 H       1  UNL1        0.0621
     47 C          -0.9802    6.7041    1.3317 C.ar    1  UNL1       -0.0565
     48 H          -1.1233    7.7476    1.0965 H       1  UNL1        0.0621
     49 C          -1.6800    4.8604   10.8383 C.ar    1  UNL1       -0.0611
     50 H          -2.4686    5.0106   11.5608 H       1  UNL1        0.0618
     51 C           4.3255    4.9956    2.0271 C.3     1  UNL1       -0.0437
     52 H           4.2810    6.0377    2.3511 H       1  UNL1        0.0272
     53 H           4.7832    4.9672    1.0361 H       1  UNL1        0.0272
     54 C           0.8672    1.4397   10.6014 C.3     1  UNL1       -0.0586
     55 H           1.6132    2.1400   10.9689 H       1  UNL1        0.0235
     56 H           1.3512    0.4830   10.4139 H       1  UNL1        0.0235
     57 H           0.1260    1.2979   11.3846 H       1  UNL1        0.0235
     58 C           0.1515    1.8700    0.8181 C.3     1  UNL1       -0.0586
     59 H          -0.6117    1.8837    0.0435 H       1  UNL1        0.0235
     60 H           0.4151    0.8331    1.0178 H       1  UNL1        0.0235
     61 H           1.0309    2.3840    0.4353 H       1  UNL1        0.0235
     62 C          -1.0141    5.9431   10.2974 C.ar    1  UNL1       -0.0565
     63 H          -1.2690    6.9376   10.6299 H       1  UNL1        0.0621
     64 C           1.7665    7.3836    9.9820 C.3     1  UNL1       -0.0586
     65 H           1.2355    7.6409   10.8965 H       1  UNL1        0.0235
     66 H           2.3430    8.2501    9.6631 H       1  UNL1        0.0235
     67 H           2.4579    6.5766   10.2075 H       1  UNL1        0.0235
     68 C          -1.6201    1.8440    2.5980 C.3     1  UNL1       -0.0586
     69 H          -2.0119    2.3497    3.4783 H       1  UNL1        0.0235
     70 H          -1.4030    0.8094    2.8574 H       1  UNL1        0.0235
     71 H          -2.3926    1.8490    1.8321 H       1  UNL1        0.0235
     72 C          -0.8992    0.9839    8.8997 C.3     1  UNL1       -0.0586
     73 H          -0.4660    0.0075    8.6904 H       1  UNL1        0.0235
     74 H          -1.4124    1.3291    8.0076 H       1  UNL1        0.0235
     75 H          -1.6355    0.8650    9.6910 H       1  UNL1        0.0235
     76 C          -0.1036    8.1861    8.5438 C.3     1  UNL1       -0.0586
     77 H          -0.9385    7.9017    7.9098 H       1  UNL1        0.0235
     78 H           0.4890    8.9338    8.0199 H       1  UNL1        0.0235
     79 H          -0.4998    8.6478    9.4455 H       1  UNL1        0.0235
     80 C           1.7940    7.9929    1.9051 C.3     1  UNL1       -0.0586
     81 H           2.4361    7.2139    1.5051 H       1  UNL1        0.0235
     82 H           2.4208    8.7496    2.3727 H       1  UNL1        0.0235
     83 H           1.2637    8.4530    1.0740 H       1  UNL1        0.0235
     84 C          -0.0467    8.5779    3.4796 C.3     1  UNL1       -0.0586
     85 H          -0.4652    9.1763    2.6738 H       1  UNL1        0.0235
     86 H           0.5722    9.2288    4.0940 H       1  UNL1        0.0235
     87 H          -0.8667    8.2078    4.0897 H       1  UNL1        0.0235
@<TRIPOS>BOND
     1    26    25    1
     2    59    58    1
     3    46    45    1
     4    61    58    1
     5    25    45   ar
     6    25    47   ar
     7    58    60    1
     8    58    27    1
     9    45    17   ar
    10    53    51    1
    11    83    80    1
    12    48    47    1
    13    43    42    1
    14    47    24   ar
    15    81    80    1
    16    44    42    1
    17    71    68    1
    18    17    27    1
    19    17    23   ar
    20    80    82    1
    21    80    40    1
    22    42    51    1
    23    42     9    1
    24    51    52    1
    25    51    18    1
    26    27    68    1
    27    27    28    1
    28    24    23   ar
    29    24    40    1
    30    23     3    1
    31    68    70    1
    32    68    69    1
    33    19    18    1
    34    85    84    1
    35    40    84    1
    36    40    41    1
    37    18    20    1
    38    18     4    1
    39     9     3    1
    40     9     5    2
    41    84    87    1
    42    84    86    1
    43     4     5    1
    44     4    14    2
    45     5     2    1
    46    15    14    1
    47    14     7    1
    48     2     6    1
    49     7     6    2
    50     7    37    1
    51     6     8    1
    52     1     8    1
    53     1    31    1
    54    77    76    1
    55    38    37    1
    56     8    10    1
    57    30    29    1
    58    74    72    1
    59    78    76    1
    60    37    39    1
    61    37    32    1
    62    22    21    1
    63    76    29    1
    64    76    79    1
    65    73    72    1
    66    29    16    1
    67    29    64    1
    68    72    21    1
    69    72    75    1
    70    31    16   ar
    71    31    13   ar
    72    33    32    1
    73    32    10    1
    74    32    34    1
    75    10    11    1
    76    10    12    1
    77    21    13    1
    78    21    54    1
    79    16    62   ar
    80    13    35   ar
    81    66    64    1
    82    64    67    1
    83    64    65    1
    84    62    63    1
    85    62    49   ar
    86    56    54    1
    87    35    49   ar
    88    35    36    1
    89    54    55    1
    90    54    57    1
    91    49    50    1
