@<TRIPOS>MOLECULE
3,26,27
 63 63 0 0 0
SMALL
GASTEIGER

@<TRIPOS>ATOM
      1 SI          3.3006    1.4211    7.1794 Si      1  UNL1        0.0000
      2 SI          3.0950    4.3487    6.1159 Si      1  UNL1        0.0000
      3 N           3.9203    2.8920    6.5304 N.3     1  UNL1        0.0000
      4 N           4.6849    0.3539    7.2161 N.3     1  UNL1        0.0000
      5 H           4.6074   -0.4782    7.7755 H       1  UNL1        0.0000
      6 C           1.9509    0.6818    6.0389 C.3     1  UNL1        0.0000
      7 H           2.2031    0.7934    4.9899 H       1  UNL1        0.0000
      8 H           0.9957    1.1665    6.2038 H       1  UNL1        0.0000
      9 H           1.8191   -0.3761    6.2384 H       1  UNL1        0.0000
     10 C           2.6000    1.5608    8.9565 C.3     1  UNL1        0.0000
     11 H           2.3492    0.5877    9.3664 H       1  UNL1        0.0000
     12 H           1.6936    2.1574    8.9588 H       1  UNL1        0.0000
     13 H           3.3124    2.0346    9.6270 H       1  UNL1        0.0000
     14 C           1.1952    4.2991    6.2287 C.3     1  UNL1        0.0000
     15 H           0.8639    4.0076    7.2182 H       1  UNL1        0.0000
     16 H           0.7961    3.5838    5.5217 H       1  UNL1        0.0000
     17 H           0.7637    5.2664    6.0008 H       1  UNL1        0.0000
     18 C           3.6890    4.7546    4.3359 C.3     1  UNL1        0.0000
     19 H           3.4060    5.7566    4.0312 H       1  UNL1        0.0000
     20 H           3.2924    4.0612    3.5994 H       1  UNL1        0.0000
     21 H           4.7783    4.6876    4.3192 H       1  UNL1        0.0000
     22 SI          5.2520    6.2544    7.1795 Si      1  UNL1        0.0000
     23 SI          8.4621    2.1478    7.1794 Si      1  UNL1        0.0000
     24 SI          6.0296    0.5060    6.1159 Si      1  UNL1        0.0000
     25 SI          7.8901    4.9688    6.1158 Si      1  UNL1        0.0000
     26 N           6.8784    1.9490    6.5305 N.3     1  UNL1        0.0000
     27 N           6.2160    4.9823    6.5305 N.3     1  UNL1        0.0000
     28 N           3.6356    5.5892    7.2161 N.3     1  UNL1        0.0000
     29 N           8.6942    3.8803    7.2160 N.3     1  UNL1        0.0000
     30 H           2.9537    6.0723    7.7755 H       1  UNL1        0.0000
     31 H           9.4536    4.2293    7.7753 H       1  UNL1        0.0000
     32 C           5.2866    7.7931    6.0391 C.3     1  UNL1        0.0000
     33 C           9.7773    1.3486    6.0389 C.3     1  UNL1        0.0000
     34 H           5.2571    7.5189    4.9901 H       1  UNL1        0.0000
     35 H           9.5545    1.5111    4.9899 H       1  UNL1        0.0000
     36 H           6.1839    8.3779    6.2041 H       1  UNL1        0.0000
     37 H           9.8351    0.2790    6.2040 H       1  UNL1        0.0000
     38 H           4.4363    8.4361    6.2386 H       1  UNL1        0.0000
     39 H          10.7593    1.7634    6.2384 H       1  UNL1        0.0000
     40 C           5.7233    6.7912    8.9566 C.3     1  UNL1        0.0000
     41 C           8.6914    1.4714    8.9566 C.3     1  UNL1        0.0000
     42 H           5.0060    7.4950    9.3666 H       1  UNL1        0.0000
     43 H           9.6596    1.7408    9.3664 H       1  UNL1        0.0000
     44 H           6.6932    7.2778    8.9590 H       1  UNL1        0.0000
     45 H           8.6279    0.3882    8.9590 H       1  UNL1        0.0000
     46 H           5.7773    5.9373    9.6271 H       1  UNL1        0.0000
     47 H           7.9250    1.8516    9.6271 H       1  UNL1        0.0000
     48 C           8.7971    6.6389    6.2286 C.3     1  UNL1        0.0000
     49 C           7.0225   -1.1145    6.2288 C.3     1  UNL1        0.0000
     50 H           8.7103    7.0715    7.2180 H       1  UNL1        0.0000
     51 H           7.4405   -1.2556    7.2183 H       1  UNL1        0.0000
     52 H           8.3771    7.3421    5.5216 H       1  UNL1        0.0000
     53 H           7.8415   -1.1025    5.5218 H       1  UNL1        0.0000
     54 H           9.8505    6.5289    6.0006 H       1  UNL1        0.0000
     55 H           6.4005   -1.9719    6.0009 H       1  UNL1        0.0000
     56 C           7.9445    4.2513    4.3358 C.3     1  UNL1        0.0000
     57 C           5.3811    0.8174    4.3359 C.3     1  UNL1        0.0000
     58 H           8.9538    3.9954    4.0310 H       1  UNL1        0.0000
     59 H           4.6549    0.0713    4.0311 H       1  UNL1        0.0000
     60 H           7.5423    4.9415    3.5993 H       1  UNL1        0.0000
     61 H           6.1799    0.8207    3.5994 H       1  UNL1        0.0000
     62 H           7.3418    3.3415    4.3192 H       1  UNL1        0.0000
     63 H           4.8945    1.7943    4.3191 H       1  UNL1        0.0000
@<TRIPOS>BOND
     1    60    56    1
     2    20    18    1
     3    61    57    1
     4    58    56    1
     5    59    57    1
     6    19    18    1
     7    63    57    1
     8    62    56    1
     9    21    18    1
    10    56    25    1
    11    57    24    1
    12    18     2    1
    13     7     6    1
    14    35    33    1
    15    34    32    1
    16    52    48    1
    17    16    14    1
    18    53    49    1
    19    54    48    1
    20    17    14    1
    21    55    49    1
    22     6     8    1
    23     6     9    1
    24     6     1    1
    25    33    37    1
    26    33    39    1
    27    33    23    1
    28    32    36    1
    29    32    38    1
    30    32    22    1
    31    25    48    1
    32    25    27    1
    33    25    29    1
    34     2    14    1
    35     2     3    1
    36     2    28    1
    37    24    49    1
    38    24    26    1
    39    24     4    1
    40    48    50    1
    41    14    15    1
    42    49    51    1
    43     3     1    1
    44    27    22    1
    45    26    23    1
    46     1     4    1
    47     1    10    1
    48    23    29    1
    49    23    41    1
    50    22    28    1
    51    22    40    1
    52    29    31    1
    53     4     5    1
    54    28    30    1
    55    10    12    1
    56    10    11    1
    57    10    13    1
    58    41    45    1
    59    41    43    1
    60    41    47    1
    61    40    44    1
    62    40    42    1
    63    40    46    1
