@<TRIPOS>MOLECULE
2,3,4
 59 62 0 0 0
SMALL
GASTEIGER

@<TRIPOS>ATOM
      1 SI         17.5831   16.0639   15.7095 Si      1  UNL1        0.0000
      2 N          17.9863   19.3611   13.7294 N.pl3   1  UNL1        0.0000
      3 N          17.5238   17.6610   15.0402 N.3     1  UNL1        0.0000
      4 N          16.8997   15.5276   14.2187 N.pl3   1  UNL1        0.5000
      5 N          16.1373   14.5270   12.3830 N.2     1  UNL1        0.5000
      6 C          18.3074   20.6829   13.4728 C.ar    1  UNL1        0.0000
      7 C          18.3001   21.1165   12.1393 C.ar    1  UNL1        0.0000
      8 H          18.0742   20.3991   11.3614 H       1  UNL1        0.0000
      9 C          18.5629   22.4330   11.8207 C.ar    1  UNL1        0.0000
     10 H          18.5601   22.7428   10.7853 H       1  UNL1        0.0000
     11 C          18.8220   23.3600   12.8180 C.ar    1  UNL1        0.0000
     12 H          19.0287   24.3892   12.5668 H       1  UNL1        0.0000
     13 C          18.7882   22.9551   14.1421 C.ar    1  UNL1        0.0000
     14 H          18.9589   23.6743   14.9304 H       1  UNL1        0.0000
     15 C          18.5278   21.6399   14.4719 C.ar    1  UNL1        0.0000
     16 H          18.4723   21.3498   15.5106 H       1  UNL1        0.0000
     17 C          18.2661   18.7293   14.8656 C.3     1  UNL1        0.0000
     18 C          19.3552   19.0727   15.8101 C.ar    1  UNL1        0.0000
     19 C          20.6169   19.4216   15.3347 C.ar    1  UNL1        0.0000
     20 H          20.7829   19.4993   14.2701 H       1  UNL1        0.0000
     21 C          21.6499   19.6619   16.2215 C.ar    1  UNL1        0.0000
     22 H          22.6270   19.9291   15.8471 H       1  UNL1        0.0000
     23 C          21.4347   19.5612   17.5866 C.ar    1  UNL1        0.0000
     24 H          22.2423   19.7548   18.2769 H       1  UNL1        0.0000
     25 C          20.1827   19.2102   18.0647 C.ar    1  UNL1        0.0000
     26 H          20.0132   19.1304   19.1285 H       1  UNL1        0.0000
     27 C          19.1490   18.9586   17.1814 C.ar    1  UNL1        0.0000
     28 H          18.1686   18.6834   17.5399 H       1  UNL1        0.0000
     29 C          19.3161   15.3259   16.0763 C.3     1  UNL1        0.0000
     30 H          19.2374   14.4565   16.7206 H       1  UNL1        0.0000
     31 H          19.9495   16.0514   16.5777 H       1  UNL1        0.0000
     32 H          19.8188   15.0144   15.1655 H       1  UNL1        0.0000
     33 C          16.5419   15.9662   17.3136 C.3     1  UNL1        0.0000
     34 H          17.0424   16.4742   18.1314 H       1  UNL1        0.0000
     35 H          16.3943   14.9348   17.6144 H       1  UNL1        0.0000
     36 H          15.5658   16.4246   17.1863 H       1  UNL1        0.0000
     37 C          16.3712   14.4459   13.6635 C.2     1  UNL1        0.0000
     38 C          16.1247   13.2177   14.4662 C.ar    1  UNL1        0.0000
     39 C          16.7127   12.0117   14.1018 C.ar    1  UNL1        0.0000
     40 H          17.3474   11.9711   13.2286 H       1  UNL1        0.0000
     41 C          16.4841   10.8726   14.8519 C.ar    1  UNL1        0.0000
     42 H          16.9460    9.9391   14.5656 H       1  UNL1        0.0000
     43 C          15.6598   10.9253   15.9635 C.ar    1  UNL1        0.0000
     44 H          15.4779   10.0334   16.5449 H       1  UNL1        0.0000
     45 C          15.0628   12.1220   16.3238 C.ar    1  UNL1        0.0000
     46 H          14.4107   12.1629   17.1844 H       1  UNL1        0.0000
     47 C          15.2956   13.2648   15.5805 C.ar    1  UNL1        0.0000
     48 H          14.8234   14.1990   15.8457 H       1  UNL1        0.0000
     49 C          15.4522   13.5399   11.6918 C.ar    1  UNL1        0.0000
     50 C          15.9707   13.0664   10.4833 C.ar    1  UNL1        0.0000
     51 H          16.9363   13.4216   10.1537 H       1  UNL1        0.0000
     52 C          15.2748   12.1393    9.7339 C.ar    1  UNL1        0.0000
     53 H          15.6959   11.7772    8.8064 H       1  UNL1        0.0000
     54 C          14.0440   11.6702   10.1633 C.ar    1  UNL1        0.0000
     55 H          13.5011   10.9462    9.5740 H       1  UNL1        0.0000
     56 C          13.5145   12.1403   11.3538 C.ar    1  UNL1        0.0000
     57 H          12.5529   11.7833   11.6948 H       1  UNL1        0.0000
     58 C          14.2063   13.0635   12.1116 C.ar    1  UNL1        0.0000
     59 H          13.7845   13.4355   13.0348 H       1  UNL1        0.0000
@<TRIPOS>BOND
     1    53    52    1
     2    55    54    1
     3    52    54   ar
     4    52    50   ar
     5    51    50    1
     6    54    56   ar
     7    50    49   ar
     8    10     9    1
     9    56    57    1
    10    56    58   ar
    11     8     7    1
    12    49    58   ar
    13    49     5    1
    14     9     7   ar
    15     9    11   ar
    16    58    59    1
    17     7     6   ar
    18     5    37    2
    19    12    11    1
    20    11    13   ar
    21    40    39    1
    22     6     2    1
    23     6    15   ar
    24    37     4    1
    25    37    38    1
    26     2    17    1
    27    39    38   ar
    28    39    41   ar
    29    13    15   ar
    30    13    14    1
    31     4     1    1
    32    20    19    1
    33    38    47   ar
    34    15    16    1
    35    42    41    1
    36    41    43   ar
    37    17     3    1
    38    17    18    1
    39     3     1    1
    40    32    29    1
    41    19    18   ar
    42    19    21   ar
    43    47    48    1
    44    47    45   ar
    45     1    29    1
    46     1    33    1
    47    18    27   ar
    48    22    21    1
    49    43    45   ar
    50    43    44    1
    51    29    31    1
    52    29    30    1
    53    21    23   ar
    54    45    46    1
    55    27    28    1
    56    27    25   ar
    57    36    33    1
    58    33    35    1
    59    33    34    1
    60    23    25   ar
    61    23    24    1
    62    25    26    1
