@<TRIPOS>MOLECULE
2,3,4
 71 74 0 0 0
SMALL
GASTEIGER

@<TRIPOS>ATOM
      1 SI          4.6119    9.2301    5.8263 Si      1  UNL1        0.0000
      2 N           2.7283   11.1987    8.6717 N.pl3   1  UNL1        0.0000
      3 N           3.8610   10.2840    6.9793 N.3     1  UNL1        0.0000
      4 N           3.7188   10.0773    4.6062 N.pl3   1  UNL1        0.5000
      5 N           3.0617   11.1991    2.7855 N.2     1  UNL1        0.5000
      6 C           2.6106   11.5895   10.0109 C.ar    1  UNL1        0.0000
      7 C           1.4041   11.3972   10.7045 C.ar    1  UNL1        0.0000
      8 C           1.2517   11.9000   11.9864 C.ar    1  UNL1        0.0000
      9 H           0.3163   11.7360   12.5035 H       1  UNL1        0.0000
     10 C           2.2729   12.5909   12.6097 C.ar    1  UNL1        0.0000
     11 H           2.1423   12.9807   13.6081 H       1  UNL1        0.0000
     12 C           3.4685   12.7631   11.9405 C.ar    1  UNL1        0.0000
     13 H           4.2828   13.2881   12.4207 H       1  UNL1        0.0000
     14 C           3.6588   12.2706   10.6580 C.ar    1  UNL1        0.0000
     15 C           0.2731   10.6106   10.1064 C.3     1  UNL1        0.0000
     16 H          -0.1252    9.9101   10.8399 H       1  UNL1        0.0000
     17 H           0.6100   10.0596    9.2349 H       1  UNL1        0.0000
     18 H          -0.5418   11.2716    9.8103 H       1  UNL1        0.0000
     19 C           4.9985   12.4950   10.0150 C.3     1  UNL1        0.0000
     20 H           5.3127   13.5291   10.1537 H       1  UNL1        0.0000
     21 H           4.9762   12.2724    8.9522 H       1  UNL1        0.0000
     22 H           5.7457   11.8516   10.4823 H       1  UNL1        0.0000
     23 C           3.6512   10.3564    8.2876 C.3     1  UNL1        0.0000
     24 C           4.4146    9.4890    9.2243 C.ar    1  UNL1        0.0000
     25 C           3.7589    8.7886   10.2309 C.ar    1  UNL1        0.0000
     26 H           2.6893    8.8818   10.3396 H       1  UNL1        0.0000
     27 C           4.4720    7.9683   11.0865 C.ar    1  UNL1        0.0000
     28 H           3.9549    7.4259   11.8643 H       1  UNL1        0.0000
     29 C           5.8443    7.8433   10.9503 C.ar    1  UNL1        0.0000
     30 H           6.3997    7.2058   11.6223 H       1  UNL1        0.0000
     31 C           6.5030    8.5403    9.9506 C.ar    1  UNL1        0.0000
     32 H           7.5744    8.4488    9.8441 H       1  UNL1        0.0000
     33 C           5.7923    9.3566    9.0907 C.ar    1  UNL1        0.0000
     34 H           6.3003    9.9110    8.3171 H       1  UNL1        0.0000
     35 C           6.5043    9.3938    5.5562 C.3     1  UNL1        0.0000
     36 H           7.0708    8.8025    6.2673 H       1  UNL1        0.0000
     37 H           6.8312   10.4273    5.6353 H       1  UNL1        0.0000
     38 H           6.7629    9.0450    4.5610 H       1  UNL1        0.0000
     39 C           4.1871    7.3910    6.1749 C.3     1  UNL1        0.0000
     40 H           4.7126    6.7179    5.5063 H       1  UNL1        0.0000
     41 H           3.1210    7.2010    6.0808 H       1  UNL1        0.0000
     42 H           4.4748    7.1355    7.1903 H       1  UNL1        0.0000
     43 C           3.7278   10.1947    3.2814 C.2     1  UNL1        0.0000
     44 C           4.4872    9.2183    2.4525 C.ar    1  UNL1        0.0000
     45 C           4.3296    7.8543    2.6731 C.ar    1  UNL1        0.0000
     46 H           3.6404    7.5216    3.4336 H       1  UNL1        0.0000
     47 C           5.0307    6.9358    1.9144 C.ar    1  UNL1        0.0000
     48 H           4.8961    5.8781    2.0894 H       1  UNL1        0.0000
     49 C           5.9005    7.3697    0.9275 C.ar    1  UNL1        0.0000
     50 H           6.4483    6.6524    0.3342 H       1  UNL1        0.0000
     51 C           6.0616    8.7261    0.7016 C.ar    1  UNL1        0.0000
     52 H           6.7372    9.0692   -0.0680 H       1  UNL1        0.0000
     53 C           5.3571    9.6468    1.4566 C.ar    1  UNL1        0.0000
     54 H           5.4881   10.7020    1.2741 H       1  UNL1        0.0000
     55 C           2.8129   11.3198    1.4153 C.ar    1  UNL1        0.0000
     56 C           2.0103   10.3896    0.7324 C.ar    1  UNL1        0.0000
     57 C           1.6783   10.6148   -0.5959 C.ar    1  UNL1        0.0000
     58 H           1.0559    9.8919   -1.1050 H       1  UNL1        0.0000
     59 C           2.1309   11.7296   -1.2719 C.ar    1  UNL1        0.0000
     60 H           1.8636   11.8900   -2.3058 H       1  UNL1        0.0000
     61 C           2.9443   12.6312   -0.6102 C.ar    1  UNL1        0.0000
     62 H           3.3241   13.4967   -1.1355 H       1  UNL1        0.0000
     63 C           3.2917   12.4426    0.7163 C.ar    1  UNL1        0.0000
     64 C           1.4908    9.1398    1.3845 C.3     1  UNL1        0.0000
     65 H           2.0220    8.2704    0.9945 H       1  UNL1        0.0000
     66 H           0.4314    9.0120    1.1644 H       1  UNL1        0.0000
     67 H           1.6275    9.1666    2.4608 H       1  UNL1        0.0000
     68 C           4.2179   13.4208    1.3773 C.3     1  UNL1        0.0000
     69 H           4.6920   14.0563    0.6321 H       1  UNL1        0.0000
     70 H           4.9940   12.8973    1.9334 H       1  UNL1        0.0000
     71 H           3.6796   14.0577    2.0763 H       1  UNL1        0.0000
@<TRIPOS>BOND
     1    60    59    1
     2    59    61   ar
     3    59    57   ar
     4    62    61    1
     5    58    57    1
     6    61    63   ar
     7    57    56   ar
     8    52    51    1
     9    50    49    1
    10    69    68    1
    11    51    49   ar
    12    51    53   ar
    13    63    68    1
    14    63    55   ar
    15    56    64    1
    16    56    55   ar
    17    49    47   ar
    18    65    64    1
    19    66    64    1
    20    54    53    1
    21    68    70    1
    22    68    71    1
    23    64    67    1
    24    55     5    1
    25    53    44   ar
    26    47    48    1
    27    47    45   ar
    28    44    45   ar
    29    44    43    1
    30    45    46    1
    31     5    43    2
    32    43     4    1
    33    38    35    1
    34     4     1    1
    35    40    39    1
    36    35    37    1
    37    35     1    1
    38    35    36    1
    39     1    39    1
    40     1     3    1
    41    41    39    1
    42    39    42    1
    43     3    23    1
    44    23     2    1
    45    23    24    1
    46    34    33    1
    47     2     6    1
    48    21    19    1
    49    33    24   ar
    50    33    31   ar
    51    24    25   ar
    52    17    15    1
    53    18    15    1
    54    32    31    1
    55    31    29   ar
    56     6    14   ar
    57     6     7   ar
    58    19    20    1
    59    19    22    1
    60    19    14    1
    61    15     7    1
    62    15    16    1
    63    25    26    1
    64    25    27   ar
    65    14    12   ar
    66     7     8   ar
    67    29    27   ar
    68    29    30    1
    69    27    28    1
    70    12    13    1
    71    12    10   ar
    72     8     9    1
    73     8    10   ar
    74    10    11    1
