@<TRIPOS>MOLECULE
1,2,3
 55 58 0 0 0
SMALL
GASTEIGER

@<TRIPOS>ATOM
      1 N          15.5246   11.0597   15.4469 N.pl3   1  UNL1       -0.1820
      2 N          17.1102   10.3379   13.6535 N.pl3   1  UNL1       -0.0089
      3 N          18.6658    8.7136   13.5238 N.pl3   1  UNL1       -0.0385
      4 P          16.5390   11.6587   14.3758 P.3     1  UNL1        0.2255
      5 C          19.8621    8.2613   13.1701 C.3     1  UNL1        0.1982
      6 H          20.0409    7.2130   13.3755 H       1  UNL1        0.0898
      7 C          20.8357    9.0512   12.5905 C.2     1  UNL1       -0.0332
      8 H          21.7959    8.6381   12.3266 H       1  UNL1        0.0615
      9 C          20.5431   10.3933   12.3595 C.2     1  UNL1       -0.0540
     10 H          21.2792   11.0442   11.9093 H       1  UNL1        0.0618
     11 C          19.3053   10.8821   12.7040 C.2     1  UNL1        0.0303
     12 H          19.0286   11.9127   12.5347 H       1  UNL1        0.0698
     13 C          18.3732   10.0115   13.2924 C.2     1  UNL1        0.3412
     14 C          17.9474   12.6248   15.0539 C.ar    1  UNL1        0.0362
     15 C          18.7738   11.9304   15.9304 C.ar    1  UNL1       -0.0492
     16 H          18.5271   10.9020   16.1724 H       1  UNL1        0.0625
     17 C          19.8835   12.5453   16.4771 C.ar    1  UNL1       -0.0610
     18 H          20.5256   12.0019   17.1549 H       1  UNL1        0.0618
     19 C          20.1711   13.8618   16.1504 C.ar    1  UNL1       -0.0617
     20 H          21.0376   14.3468   16.5754 H       1  UNL1        0.0618
     21 C          19.3505   14.5557   15.2766 C.ar    1  UNL1       -0.0610
     22 H          19.5779   15.5807   15.0212 H       1  UNL1        0.0618
     23 C          18.2406   13.9400   14.7235 C.ar    1  UNL1       -0.0492
     24 H          17.6060   14.4775   14.0324 H       1  UNL1        0.0625
     25 C          15.7113   12.7926   13.2107 C.ar    1  UNL1        0.0362
     26 C          15.6938   12.5129   11.8509 C.ar    1  UNL1       -0.0492
     27 H          16.2430   11.6568   11.4842 H       1  UNL1        0.0625
     28 C          14.9787   13.3255   10.9890 C.ar    1  UNL1       -0.0610
     29 H          14.9669   13.1111    9.9302 H       1  UNL1        0.0618
     30 C          14.2747   14.4113   11.4848 C.ar    1  UNL1       -0.0617
     31 H          13.7141   15.0429   10.8113 H       1  UNL1        0.0618
     32 C          14.2840   14.6875   12.8435 C.ar    1  UNL1       -0.0610
     33 H          13.7301   15.5314   13.2283 H       1  UNL1        0.0618
     34 C          14.9996   13.8797   13.7077 C.ar    1  UNL1       -0.0492
     35 H          15.0066   14.0788   14.7710 H       1  UNL1        0.0625
     36 C          14.4528   11.7213   16.0489 C.ar    1  UNL1        0.0620
     37 C          14.6084   12.3951   17.2676 C.ar    1  UNL1       -0.0269
     38 C          13.5019   12.9618   17.8824 C.ar    1  UNL1       -0.0541
     39 H          13.6359   13.4841   18.8205 H       1  UNL1        0.0623
     40 C          12.2350   12.8717   17.3274 C.ar    1  UNL1       -0.0498
     41 C          12.0901   12.1854   16.1286 C.ar    1  UNL1       -0.0541
     42 H          11.1066   12.0991   15.6856 H       1  UNL1        0.0623
     43 C          13.1721   11.6114   15.4840 C.ar    1  UNL1       -0.0269
     44 C          15.9655   12.4992   17.8942 C.3     1  UNL1       -0.0379
     45 H          16.5628   13.2596   17.3876 H       1  UNL1        0.0278
     46 H          16.4947   11.5502   17.8038 H       1  UNL1        0.0278
     47 H          15.8887   12.7694   18.9451 H       1  UNL1        0.0278
     48 C          12.9911   10.8668   14.1963 C.3     1  UNL1       -0.0379
     49 H          13.3464   11.4650   13.3558 H       1  UNL1        0.0278
     50 H          11.9416   10.6333   14.0274 H       1  UNL1        0.0278
     51 H          13.5750    9.9409   14.2128 H       1  UNL1        0.0278
     52 C          11.0451   13.4974   17.9930 C.3     1  UNL1       -0.0397
     53 H          10.6791   14.3370   17.4017 H       1  UNL1        0.0278
     54 H          11.3018   13.8628   18.9844 H       1  UNL1        0.0278
     55 H          10.2325   12.7779   18.0848 H       1  UNL1        0.0278
@<TRIPOS>BOND
     1    29    28    1
     2    31    30    1
     3    28    30   ar
     4    28    26   ar
     5    27    26    1
     6    30    32   ar
     7    26    25   ar
     8    10     9    1
     9     8     7    1
    10     9     7    2
    11     9    11    1
    12    12    11    1
    13     7     5    1
    14    11    13    2
    15    32    33    1
    16    32    34   ar
    17     5     6    1
    18     5     3    1
    19    25    34   ar
    20    25     4    1
    21    13     3    1
    22    13     2    1
    23    49    48    1
    24     2     4    1
    25    34    35    1
    26    50    48    1
    27    24    23    1
    28    48    51    1
    29    48    43    1
    30     4    14    1
    31     4     1    1
    32    23    14   ar
    33    23    21   ar
    34    22    21    1
    35    14    15   ar
    36    21    19   ar
    37     1    36    1
    38    43    36   ar
    39    43    41   ar
    40    42    41    1
    41    15    16    1
    42    15    17   ar
    43    36    37   ar
    44    41    40   ar
    45    19    17   ar
    46    19    20    1
    47    17    18    1
    48    37    38   ar
    49    37    44    1
    50    40    38   ar
    51    40    52    1
    52    45    44    1
    53    53    52    1
    54    46    44    1
    55    38    39    1
    56    44    47    1
    57    52    55    1
    58    52    54    1
