@<TRIPOS>MOLECULE
1,2,3
 61 63 0 0 0
SMALL
GASTEIGER

@<TRIPOS>ATOM
      1 N           7.0571   13.0464    0.9939 N.pl3   1  UNL1       -0.2171
      2 N           6.5985   15.2685    1.9560 N.pl3   1  UNL1       -0.2154
      3 N           8.6579   16.1263    3.0047 N.pl3   1  UNL1       -0.2353
      4 C           5.5483   14.7553    1.2357 C.2     1  UNL1        0.0720
      5 C           4.3769   15.4759    1.0256 C.2     1  UNL1       -0.0371
      6 H           3.5675   15.0308    0.4692 H       1  UNL1        0.0637
      7 C           4.2614   16.7634    1.5253 C.2     1  UNL1       -0.0583
      8 H           3.3581   17.3327    1.3720 H       1  UNL1        0.0619
      9 C           5.3343   17.3132    2.2090 C.2     1  UNL1       -0.0405
     10 H           5.2824   18.3215    2.5878 H       1  UNL1        0.0634
     11 C           6.4888   16.5615    2.4036 C.2     1  UNL1        0.0586
     12 C           7.6901   17.0088    3.0160 C.3     1  UNL1        0.1181
     13 C           5.8491   13.4684    0.7141 C.2     1  UNL1        0.0510
     14 C           7.8071   18.3964    3.5757 C.3     1  UNL1       -0.0340
     15 H           8.7999   18.5664    3.9828 H       1  UNL1        0.0255
     16 H           7.0726   18.5389    4.3673 H       1  UNL1        0.0255
     17 H           7.6161   19.1351    2.7984 H       1  UNL1        0.0255
     18 C           4.8540   12.7143   -0.1190 C.3     1  UNL1       -0.0228
     19 H           5.2727   11.7722   -0.4617 H       1  UNL1        0.0291
     20 H           4.5620   13.3046   -0.9865 H       1  UNL1        0.0291
     21 H           3.9599   12.5083    0.4682 H       1  UNL1        0.0291
     22 C           7.5146   11.8705    0.3756 C.ar    1  UNL1        0.0592
     23 C           7.3071   10.6064    0.9374 C.ar    1  UNL1       -0.0270
     24 C           7.8544    9.4910    0.3202 C.ar    1  UNL1       -0.0541
     25 H           7.6954    8.5197    0.7679 H       1  UNL1        0.0623
     26 C           8.5872    9.5901   -0.8522 C.ar    1  UNL1       -0.0498
     27 C           8.7083   10.8394   -1.4425 C.ar    1  UNL1       -0.0541
     28 H           9.2231   10.9320   -2.3888 H       1  UNL1        0.0623
     29 C           8.1633   11.9743   -0.8644 C.ar    1  UNL1       -0.0270
     30 C           6.4546   10.4185    2.1579 C.3     1  UNL1       -0.0379
     31 H           7.0324    9.9785    2.9696 H       1  UNL1        0.0278
     32 H           5.6359    9.7348    1.9310 H       1  UNL1        0.0278
     33 H           6.0390   11.3638    2.4913 H       1  UNL1        0.0278
     34 C           9.2164    8.3779   -1.4700 C.3     1  UNL1       -0.0397
     35 H          10.1931    8.1963   -1.0200 H       1  UNL1        0.0278
     36 H           9.3581    8.5150   -2.5395 H       1  UNL1        0.0278
     37 H           8.6026    7.4950   -1.3049 H       1  UNL1        0.0278
     38 C           8.1923   13.2736   -1.6184 C.3     1  UNL1       -0.0379
     39 H           9.1440   13.4025   -2.1299 H       1  UNL1        0.0278
     40 H           8.0213   14.1195   -0.9561 H       1  UNL1        0.0278
     41 H           7.4055   13.2678   -2.3750 H       1  UNL1        0.0278
     42 C           9.9357   16.5308    3.4279 C.ar    1  UNL1        0.0547
     43 C          10.8172   17.0714    2.4791 C.ar    1  UNL1       -0.0274
     44 C          12.1122   17.3853    2.8573 C.ar    1  UNL1       -0.0541
     45 H          12.7906   17.7831    2.1153 H       1  UNL1        0.0623
     46 C          12.5500   17.2261    4.1642 C.ar    1  UNL1       -0.0498
     47 C          11.6361   16.7868    5.1088 C.ar    1  UNL1       -0.0541
     48 H          11.9362   16.7096    6.1447 H       1  UNL1        0.0623
     49 C          10.3355   16.4470    4.7656 C.ar    1  UNL1       -0.0274
     50 C          10.3543   17.4024    1.0884 C.3     1  UNL1       -0.0379
     51 H           9.4493   16.8563    0.8319 H       1  UNL1        0.0278
     52 H          11.1299   17.1773    0.3592 H       1  UNL1        0.0278
     53 H          10.1386   18.4706    1.0259 H       1  UNL1        0.0278
     54 C          13.9672   17.5327    4.5439 C.3     1  UNL1       -0.0397
     55 H          14.0355   17.8231    5.5898 H       1  UNL1        0.0278
     56 H          14.3708   18.3328    3.9273 H       1  UNL1        0.0278
     57 H          14.5898   16.6491    4.3979 H       1  UNL1        0.0278
     58 C           9.3744   16.0581    5.8504 C.3     1  UNL1       -0.0379
     59 H           9.2956   16.8671    6.5775 H       1  UNL1        0.0278
     60 H           9.7263   15.1747    6.3816 H       1  UNL1        0.0278
     61 H           8.3894   15.8565    5.4425 H       1  UNL1        0.0278
@<TRIPOS>BOND
     1    36    34    1
     2    28    27    1
     3    41    38    1
     4    39    38    1
     5    38    40    1
     6    38    29    1
     7    34    37    1
     8    34    35    1
     9    34    26    1
    10    27    29   ar
    11    27    26   ar
    12    20    18    1
    13    29    22   ar
    14    26    24   ar
    15    19    18    1
    16    18    21    1
    17    18    13    1
    18    24    25    1
    19    24    23   ar
    20    52    50    1
    21    22    23   ar
    22    22     1    1
    23     6     5    1
    24    13     1    1
    25    13     4    2
    26    51    50    1
    27    23    30    1
    28     5     4    1
    29     5     7    2
    30    53    50    1
    31    50    43    1
    32     4     2    1
    33     8     7    1
    34     7     9    1
    35    32    30    1
    36     2    11    1
    37    45    44    1
    38    30    33    1
    39    30    31    1
    40     9    11    2
    41     9    10    1
    42    11    12    1
    43    43    44   ar
    44    43    42   ar
    45    17    14    1
    46    44    46   ar
    47     3    12    1
    48     3    42    1
    49    12    14    1
    50    42    49   ar
    51    14    15    1
    52    14    16    1
    53    56    54    1
    54    46    54    1
    55    46    47   ar
    56    57    54    1
    57    54    55    1
    58    49    47   ar
    59    49    58    1
    60    47    48    1
    61    61    58    1
    62    58    60    1
    63    58    59    1
