@<TRIPOS>MOLECULE
39,41,43
 44 46 0 0 0
SMALL
GASTEIGER

@<TRIPOS>ATOM
      1 B           3.4519   14.9760   22.0070 B       1  UNL1        0.0000
      2 H           3.6227   14.2016   22.8728 H       1  UNL1        0.0000
      3 C           5.9832   18.9598   20.4465 C.3     1  UNL1        0.0000
      4 H           5.3490   19.7702   20.8092 H       1  UNL1        0.0000
      5 H           5.8076   18.8401   19.3760 H       1  UNL1        0.0000
      6 H           7.0196   19.2483   20.6038 H       1  UNL1        0.0000
      7 C           5.6954   17.7051   21.1933 C.ar    1  UNL1        0.0000
      8 C           6.4669   17.1242   22.1985 C.ar    1  UNL1        0.0000
      9 H           7.3958   17.4849   22.5895 H       1  UNL1        0.0000
     10 C           5.7725   15.9955   22.6027 C.ar    1  UNL1        0.0000
     11 C           6.1457   15.0191   23.6548 C.3     1  UNL1        0.0000
     12 H           6.2052   14.0119   23.2483 H       1  UNL1        0.0000
     13 H           5.4108   15.0183   24.4574 H       1  UNL1        0.0000
     14 H           7.1132   15.2869   24.0694 H       1  UNL1        0.0000
     15 C           0.1963   18.7057   21.3298 C.3     1  UNL1        0.0000
     16 H          -0.4212   18.4051   20.4840 H       1  UNL1        0.0000
     17 H           0.9323   19.4285   20.9807 H       1  UNL1        0.0000
     18 H          -0.4484   19.1876   22.0605 H       1  UNL1        0.0000
     19 C           0.8513   17.5277   21.9554 C.ar    1  UNL1        0.0000
     20 C           0.4880   16.9076   23.1462 C.ar    1  UNL1        0.0000
     21 H          -0.3201   17.1776   23.7935 H       1  UNL1        0.0000
     22 C           1.3885   15.8673   23.3251 C.ar    1  UNL1        0.0000
     23 C           1.4484   14.8884   24.4367 C.3     1  UNL1        0.0000
     24 H           2.3938   14.9667   24.9699 H       1  UNL1        0.0000
     25 H           1.3562   13.8715   24.0610 H       1  UNL1        0.0000
     26 H           0.6372   15.0806   25.1325 H       1  UNL1        0.0000
     27 C           2.4405   14.5792   17.1609 C.3     1  UNL1        0.0000
     28 H           3.3225   15.0303   16.7024 H       1  UNL1        0.0000
     29 H           1.6288   15.3091   17.1345 H       1  UNL1        0.0000
     30 H           2.1512   13.7169   16.5660 H       1  UNL1        0.0000
     31 C           2.7235   14.1446   18.5554 C.ar    1  UNL1        0.0000
     32 C           2.7854   12.8421   19.0481 C.ar    1  UNL1        0.0000
     33 H           2.6330   11.9368   18.4984 H       1  UNL1        0.0000
     34 C           3.0703   12.9607   20.3982 C.ar    1  UNL1        0.0000
     35 C           3.1988   11.8818   21.4077 C.3     1  UNL1        0.0000
     36 H           2.4008   11.9541   22.1447 H       1  UNL1        0.0000
     37 H           4.1494   11.9423   21.9318 H       1  UNL1        0.0000
     38 H           3.1291   10.9166   20.9149 H       1  UNL1        0.0000
     39 N           4.6055   16.9575   20.9918 N.ar    1  UNL1        0.0000
     40 N           4.6561   15.9201   21.8549 N.ar    1  UNL1        0.0000
     41 N           1.9180   16.8929   21.4392 N.ar    1  UNL1        0.0000
     42 N           2.2378   15.8847   22.2868 N.ar    1  UNL1        0.0000
     43 N           2.9682   15.0013   19.5541 N.ar    1  UNL1        0.0000
     44 N           3.1872   14.2743   20.6708 N.ar    1  UNL1        0.0000
@<TRIPOS>BOND
     1    30    27    1
     2    28    27    1
     3    29    27    1
     4    27    31    1
     5    33    32    1
     6    31    32   ar
     7    31    43   ar
     8    32    34   ar
     9     5     3    1
    10    43    44   ar
    11    34    44   ar
    12    34    35    1
    13     3     6    1
    14     3     4    1
    15     3     7    1
    16    16    15    1
    17    44     1    1
    18    38    35    1
    19    17    15    1
    20    39     7   ar
    21    39    40   ar
    22     7     8   ar
    23    15    19    1
    24    15    18    1
    25    35    37    1
    26    35    36    1
    27    41    19   ar
    28    41    42   ar
    29    40     1    1
    30    40    10   ar
    31    19    20   ar
    32     1    42    1
    33     1     2    1
    34     8     9    1
    35     8    10   ar
    36    42    22   ar
    37    10    11    1
    38    20    22   ar
    39    20    21    1
    40    12    11    1
    41    22    23    1
    42    11    14    1
    43    11    13    1
    44    25    23    1
    45    23    24    1
    46    23    26    1
