@<TRIPOS>MOLECULE
1,2,3
 79 81 0 0 0
SMALL
GASTEIGER

@<TRIPOS>ATOM
      1 N           1.8951    2.1979    2.9660 N.pl3   1  UNL1       -0.2171
      2 N          -1.1272   -0.0404    3.7616 N.pl3   1  UNL1       -0.2352
      3 N           0.7502    0.1658    2.2144 N.pl3   1  UNL1       -0.2154
      4 C           3.8224    2.0355    1.3775 C.3     1  UNL1       -0.0228
      5 H           4.0329    3.0705    1.6335 H       1  UNL1        0.0291
      6 H           3.7433    1.9429    0.2949 H       1  UNL1        0.0291
      7 H           4.6577    1.4122    1.6981 H       1  UNL1        0.0291
      8 C           2.5619    1.5572    2.0313 C.2     1  UNL1        0.0510
      9 C           1.9744    0.3162    1.6365 C.2     1  UNL1        0.0720
     10 C           2.4983   -0.6604    0.7951 C.2     1  UNL1       -0.0371
     11 H           3.4661   -0.5233    0.3393 H       1  UNL1        0.0637
     12 C           1.7678   -1.8172    0.5632 C.2     1  UNL1       -0.0583
     13 H           2.1520   -2.5785   -0.0981 H       1  UNL1        0.0619
     14 C           0.5593   -2.0085    1.2202 C.2     1  UNL1       -0.0405
     15 H           0.0043   -2.9245    1.0931 H       1  UNL1        0.0634
     16 C           0.0835   -1.0123    2.0649 C.2     1  UNL1        0.0586
     17 C          -1.0781   -1.0294    2.8982 C.3     1  UNL1        0.1181
     18 C          -2.1348   -2.0751    2.7158 C.3     1  UNL1       -0.0340
     19 H          -2.9581   -1.9323    3.4104 H       1  UNL1        0.0255
     20 H          -1.7101   -3.0679    2.8611 H       1  UNL1        0.0255
     21 H          -2.5217   -2.0280    1.6975 H       1  UNL1        0.0255
     22 C           2.3342    3.4972    3.3201 C.ar    1  UNL1        0.0602
     23 C           3.3799    3.6967    4.2350 C.ar    1  UNL1       -0.0216
     24 C           3.7620    4.9971    4.5381 C.ar    1  UNL1       -0.0565
     25 H           4.5581    5.1640    5.2473 H       1  UNL1        0.0621
     26 C           3.1591    6.0820    3.9357 C.ar    1  UNL1       -0.0611
     27 H           3.4781    7.0851    4.1777 H       1  UNL1        0.0618
     28 C           2.1542    5.8772    3.0098 C.ar    1  UNL1       -0.0565
     29 H           1.7046    6.7298    2.5267 H       1  UNL1        0.0621
     30 C           1.7235    4.5984    2.6938 C.ar    1  UNL1       -0.0216
     31 C           4.1416    2.5540    4.8721 C.3     1  UNL1       -0.0197
     32 H           3.6857    1.6099    4.5581 H       1  UNL1        0.0344
     33 C           4.0981    2.6286    6.4013 C.3     1  UNL1       -0.0586
     34 H           4.6606    3.4854    6.7643 H       1  UNL1        0.0235
     35 H           4.5392    1.7297    6.8276 H       1  UNL1        0.0235
     36 H           3.0766    2.7163    6.7582 H       1  UNL1        0.0235
     37 C           5.6079    2.5614    4.4235 C.3     1  UNL1       -0.0586
     38 H           5.6970    2.5615    3.3413 H       1  UNL1        0.0235
     39 H           6.1184    1.6825    4.8122 H       1  UNL1        0.0235
     40 H           6.1179    3.4446    4.8014 H       1  UNL1        0.0235
     41 C           0.6511    4.3904    1.6470 C.3     1  UNL1       -0.0197
     42 H           0.1682    3.4261    1.8506 H       1  UNL1        0.0344
     43 C           1.2787    4.3259    0.2502 C.3     1  UNL1       -0.0586
     44 H           0.4996    4.2497   -0.5058 H       1  UNL1        0.0235
     45 H           1.9301    3.4634    0.1544 H       1  UNL1        0.0235
     46 H           1.8618    5.2244    0.0554 H       1  UNL1        0.0235
     47 C          -0.4213    5.4802    1.6625 C.3     1  UNL1       -0.0586
     48 H          -0.7999    5.6411    2.6682 H       1  UNL1        0.0235
     49 H          -1.2520    5.1888    1.0226 H       1  UNL1        0.0235
     50 H          -0.0317    6.4216    1.2825 H       1  UNL1        0.0235
     51 C          -2.2763    0.0492    4.5834 C.ar    1  UNL1        0.0557
     52 C          -3.3689    0.8089    4.1318 C.ar    1  UNL1       -0.0219
     53 C          -4.5003    0.8966    4.9264 C.ar    1  UNL1       -0.0565
     54 H          -5.3424    1.4871    4.6036 H       1  UNL1        0.0621
     55 C          -4.5741    0.2243    6.1326 C.ar    1  UNL1       -0.0611
     56 H          -5.4653    0.2971    6.7381 H       1  UNL1        0.0618
     57 C          -3.5099   -0.5454    6.5538 C.ar    1  UNL1       -0.0565
     58 H          -3.5833   -1.0813    7.4877 H       1  UNL1        0.0621
     59 C          -2.3511   -0.6500    5.7953 C.ar    1  UNL1       -0.0219
     60 C          -3.2746    1.5242    2.8029 C.3     1  UNL1       -0.0197
     61 H          -2.7301    0.8759    2.1068 H       1  UNL1        0.0344
     62 C          -2.4633    2.8090    2.9800 C.3     1  UNL1       -0.0586
     63 H          -2.9531    3.4760    3.6859 H       1  UNL1        0.0235
     64 H          -2.3630    3.3218    2.0271 H       1  UNL1        0.0235
     65 H          -1.4606    2.5717    3.3702 H       1  UNL1        0.0235
     66 C          -4.6311    1.8365    2.1727 C.3     1  UNL1       -0.0586
     67 H          -5.2599    0.9491    2.1436 H       1  UNL1        0.0235
     68 H          -4.4862    2.1869    1.1526 H       1  UNL1        0.0235
     69 H          -5.1505    2.6185    2.7214 H       1  UNL1        0.0235
     70 C          -1.2296   -1.5410    6.2822 C.3     1  UNL1       -0.0197
     71 H          -0.3660   -1.4050    5.6239 H       1  UNL1        0.0344
     72 C          -0.8099   -1.1846    7.7118 C.3     1  UNL1       -0.0586
     73 H          -0.6368   -0.1159    7.8100 H       1  UNL1        0.0235
     74 H           0.1075   -1.7099    7.9699 H       1  UNL1        0.0235
     75 H          -1.5761   -1.4739    8.4270 H       1  UNL1        0.0235
     76 C          -1.6470   -3.0143    6.2295 C.3     1  UNL1       -0.0586
     77 H          -2.5068   -3.1919    6.8717 H       1  UNL1        0.0235
     78 H          -0.8283   -3.6446    6.5707 H       1  UNL1        0.0235
     79 H          -1.9110   -3.3123    5.2189 H       1  UNL1        0.0235
@<TRIPOS>BOND
     1    44    43    1
     2    13    12    1
     3    46    43    1
     4    45    43    1
     5    43    41    1
     6     6     4    1
     7    11    10    1
     8    12    10    2
     9    12    14    1
    10    10     9    1
    11    49    47    1
    12    15    14    1
    13    68    66    1
    14    14    16    2
    15    50    47    1
    16     4     5    1
    17     4     7    1
    18     4     8    1
    19     9     8    2
    20     9     3    1
    21    41    47    1
    22    41    42    1
    23    41    30    1
    24    47    48    1
    25    21    18    1
    26    64    62    1
    27     8     1    1
    28    16     3    1
    29    16    17    1
    30    61    60    1
    31    67    66    1
    32    66    69    1
    33    66    60    1
    34    29    28    1
    35    30    28   ar
    36    30    22   ar
    37    18    20    1
    38    18    17    1
    39    18    19    1
    40    60    62    1
    41    60    52    1
    42    17     2    1
    43     1    22    1
    44    62    65    1
    45    62    63    1
    46    28    26   ar
    47    22    23   ar
    48    38    37    1
    49     2    51    1
    50    26    27    1
    51    26    24   ar
    52    52    51   ar
    53    52    53   ar
    54    23    24   ar
    55    23    31    1
    56    37    40    1
    57    37    39    1
    58    37    31    1
    59    24    25    1
    60    32    31    1
    61    51    59   ar
    62    54    53    1
    63    31    33    1
    64    53    55   ar
    65    79    76    1
    66    71    70    1
    67    59    70    1
    68    59    57   ar
    69    55    57   ar
    70    55    56    1
    71    76    70    1
    72    76    78    1
    73    76    77    1
    74    70    72    1
    75    33    36    1
    76    33    34    1
    77    33    35    1
    78    57    58    1
    79    72    73    1
    80    72    74    1
    81    72    75    1
