@<TRIPOS>MOLECULE
2,4,6
 71 73 0 0 0
SMALL
GASTEIGER

@<TRIPOS>ATOM
      1 N           1.7286   -0.0861   21.5786 N.pl3   1  UNL1        0.0000
      2 N           0.6450   -0.6799   21.0336 N.3     1  UNL1        0.0000
      3 N           3.2509   -1.9947   22.1330 N.pl3   1  UNL1        0.0000
      4 N           2.1733   -2.8094   22.2431 N.3     1  UNL1        0.0000
      5 N           3.5263   -0.6297   19.9231 N.pl3   1  UNL1        0.0000
      6 N           2.7746   -1.2397   18.9806 N.3     1  UNL1        0.0000
      7 C          -0.4188    0.0550   21.3717 C.3     1  UNL1        0.0000
      8 C          -0.0087    1.1402   22.1493 C.2     1  UNL1        0.0000
      9 H          -0.6111    1.9139   22.5778 H       1  UNL1        0.0000
     10 C           1.3617    1.0157   22.2599 C.2     1  UNL1        0.0000
     11 C           2.2891    1.9158   22.9963 C.3     1  UNL1        0.0000
     12 H           2.8326    1.3683   23.7642 H       1  UNL1        0.0000
     13 H           1.7160    2.7087   23.4702 H       1  UNL1        0.0000
     14 H           3.0142    2.3656   22.3203 H       1  UNL1        0.0000
     15 C          -1.8258   -0.2835   20.9555 C.3     1  UNL1        0.0000
     16 C          -1.8960   -0.3393   19.4256 C.3     1  UNL1        0.0000
     17 H          -1.1588   -1.0399   19.0398 H       1  UNL1        0.0000
     18 H          -1.6888    0.6436   19.0066 H       1  UNL1        0.0000
     19 H          -2.8864   -0.6520   19.1012 H       1  UNL1        0.0000
     20 C          -2.8106    0.7790   21.4539 C.3     1  UNL1        0.0000
     21 H          -2.5616    1.7576   21.0505 H       1  UNL1        0.0000
     22 H          -2.8051    0.8364   22.5397 H       1  UNL1        0.0000
     23 H          -3.8178    0.5232   21.1314 H       1  UNL1        0.0000
     24 C          -2.2119   -1.6362   21.5671 C.3     1  UNL1        0.0000
     25 H          -1.4865   -2.4016   21.2876 H       1  UNL1        0.0000
     26 H          -3.1990   -1.9402   21.2242 H       1  UNL1        0.0000
     27 H          -2.2332   -1.5606   22.6531 H       1  UNL1        0.0000
     28 C           2.4230   -3.6801   23.2204 C.3     1  UNL1        0.0000
     29 C           3.7000   -3.4397   23.7392 C.2     1  UNL1        0.0000
     30 H           4.2015   -3.9670   24.5256 H       1  UNL1        0.0000
     31 C           4.1913   -2.3635   23.0274 C.2     1  UNL1        0.0000
     32 C           5.5220   -1.7168   23.1672 C.3     1  UNL1        0.0000
     33 H           5.4231   -0.6834   23.4962 H       1  UNL1        0.0000
     34 H           6.0500   -1.7222   22.2153 H       1  UNL1        0.0000
     35 H           6.1137   -2.2622   23.8977 H       1  UNL1        0.0000
     36 C           1.4362   -4.6986   23.7285 C.3     1  UNL1        0.0000
     37 C           0.0958   -4.5995   22.9966 C.3     1  UNL1        0.0000
     38 H          -0.3153   -3.5971   23.1051 H       1  UNL1        0.0000
     39 H          -0.6095   -5.3096   23.4254 H       1  UNL1        0.0000
     40 H           0.2097   -4.8300   21.9326 H       1  UNL1        0.0000
     41 C           1.1992   -4.4233   25.2219 C.3     1  UNL1        0.0000
     42 H           0.8090   -3.4178   25.3640 H       1  UNL1        0.0000
     43 H           2.1241   -4.5142   25.7849 H       1  UNL1        0.0000
     44 H           0.4811   -5.1344   25.6246 H       1  UNL1        0.0000
     45 C           2.0176   -6.1071   23.5586 C.3     1  UNL1        0.0000
     46 H           2.2130   -6.3144   22.5093 H       1  UNL1        0.0000
     47 H           1.3182   -6.8500   23.9363 H       1  UNL1        0.0000
     48 H           2.9531   -6.2056   24.1032 H       1  UNL1        0.0000
     49 C           3.2585   -0.8855   17.7853 C.3     1  UNL1        0.0000
     50 C           4.3495   -0.0337   17.9659 C.2     1  UNL1        0.0000
     51 H           4.9650    0.4222   17.2186 H       1  UNL1        0.0000
     52 C           4.4876    0.1063   19.3341 C.2     1  UNL1        0.0000
     53 C           5.5130    0.9116   20.0491 C.3     1  UNL1        0.0000
     54 H           6.2110    1.3244   19.3253 H       1  UNL1        0.0000
     55 H           6.0640    0.2987   20.7588 H       1  UNL1        0.0000
     56 H           5.0522    1.7325   20.5960 H       1  UNL1        0.0000
     57 C           2.6389   -1.3308   16.4850 C.3     1  UNL1        0.0000
     58 C           1.1820   -0.8503   16.4495 C.3     1  UNL1        0.0000
     59 H           0.6357   -1.2392   17.3090 H       1  UNL1        0.0000
     60 H           0.6945   -1.1894   15.5379 H       1  UNL1        0.0000
     61 H           1.1425    0.2369   16.4797 H       1  UNL1        0.0000
     62 C           3.3938   -0.7212   15.2991 C.3     1  UNL1        0.0000
     63 H           4.4293   -1.0525   15.2895 H       1  UNL1        0.0000
     64 H           3.3738    0.3651   15.3427 H       1  UNL1        0.0000
     65 H           2.9274   -1.0333   14.3673 H       1  UNL1        0.0000
     66 C           2.6871   -2.8593   16.3660 C.3     1  UNL1        0.0000
     67 H           2.1167   -3.3300   17.1712 H       1  UNL1        0.0000
     68 H           3.7154   -3.2119   16.4172 H       1  UNL1        0.0000
     69 H           2.2642   -3.1705   15.4127 H       1  UNL1        0.0000
     70 B           3.1658   -0.6150   21.4274 B       1  UNL1        0.0000
     71 H           3.9081    0.1193   21.9763 H       1  UNL1        0.0000
@<TRIPOS>BOND
     1    65    62    1
     2    63    62    1
     3    62    64    1
     4    62    57    1
     5    69    66    1
     6    60    58    1
     7    66    68    1
     8    66    57    1
     9    66    67    1
    10    58    61    1
    11    58    57    1
    12    58    59    1
    13    57    49    1
    14    51    50    1
    15    49    50    1
    16    49     6    1
    17    50    52    2
    18     6     5    1
    19    18    16    1
    20    17    16    1
    21    19    16    1
    22    54    53    1
    23    52     5    1
    24    52    53    1
    25    16    15    1
    26     5    70    1
    27    53    56    1
    28    53    55    1
    29    15     7    1
    30    15    20    1
    31    15    24    1
    32     2     7    1
    33     2     1    1
    34    21    20    1
    35    23    20    1
    36    26    24    1
    37    25    24    1
    38     7     8    1
    39    70     1    1
    40    70    71    1
    41    70     3    1
    42    20    22    1
    43    24    27    1
    44     1    10    1
    45    40    37    1
    46     3     4    1
    47     3    31    1
    48     8    10    2
    49     8     9    1
    50    34    32    1
    51     4    28    1
    52    10    11    1
    53    14    11    1
    54    46    45    1
    55    11    13    1
    56    11    12    1
    57    37    38    1
    58    37    39    1
    59    37    36    1
    60    31    32    1
    61    31    29    2
    62    32    33    1
    63    32    35    1
    64    28    36    1
    65    28    29    1
    66    45    36    1
    67    45    47    1
    68    45    48    1
    69    36    41    1
    70    29    30    1
    71    41    42    1
    72    41    44    1
    73    41    43    1
