@<TRIPOS>MOLECULE
1,3,5
 83 85 0 0 0
SMALL
GASTEIGER

@<TRIPOS>ATOM
      1 N           7.3578    3.7125   -5.9786 N.pl3   1  UNL1       -0.2372
      2 C           7.9747    4.8119   -6.4101 C.3     1  UNL1        0.1224
      3 N           6.5564    5.9101   -4.7622 N.pl3   1  UNL1       -0.2415
      4 C           7.7586    6.0725   -5.5750 C.3     1  UNL1        0.0770
      5 N           5.9364    1.6069   -5.1783 N.pl3   1  UNL1       -0.2352
      6 C           7.7695    7.3347   -6.4557 C.3     1  UNL1       -0.0397
      7 H           7.0950    7.2392   -7.3008 H       1  UNL1        0.0252
      8 H           8.7720    7.5333   -6.8266 H       1  UNL1        0.0252
      9 H           7.4550    8.1892   -5.8616 H       1  UNL1        0.0252
     10 C           9.0194    6.1386   -4.6668 C.3     1  UNL1       -0.0397
     11 H           9.0335    7.0838   -4.1327 H       1  UNL1        0.0252
     12 H           9.9286    6.0609   -5.2610 H       1  UNL1        0.0252
     13 H           8.9857    5.3175   -3.9513 H       1  UNL1        0.0252
     14 C           5.6717    7.0050   -4.7209 C.ar    1  UNL1        0.0553
     15 C           4.7170    7.2046   -5.7411 C.ar    1  UNL1       -0.0220
     16 C           4.5760    6.2010   -6.8646 C.3     1  UNL1       -0.0197
     17 H           5.4806    5.5827   -6.8933 H       1  UNL1        0.0344
     18 C           3.3971    5.2762   -6.5520 C.3     1  UNL1       -0.0586
     19 H           3.5810    4.7579   -5.6072 H       1  UNL1        0.0235
     20 H           3.2726    4.5437   -7.3476 H       1  UNL1        0.0235
     21 H           2.4771    5.8496   -6.4593 H       1  UNL1        0.0235
     22 C           4.3904    6.8519   -8.2372 C.3     1  UNL1       -0.0586
     23 H           5.1285    7.6336   -8.4055 H       1  UNL1        0.0235
     24 H           3.4020    7.2950   -8.3296 H       1  UNL1        0.0235
     25 H           4.4955    6.1037   -9.0216 H       1  UNL1        0.0235
     26 C           3.8434    8.2770   -5.6697 C.ar    1  UNL1       -0.0565
     27 H           3.1038    8.4182   -6.4439 H       1  UNL1        0.0621
     28 C           3.8998    9.1767   -4.6224 C.ar    1  UNL1       -0.0611
     29 H           3.2214   10.0166   -4.5882 H       1  UNL1        0.0618
     30 C           4.8218    8.9824   -3.6134 C.ar    1  UNL1       -0.0565
     31 H           4.8564    9.6790   -2.7886 H       1  UNL1        0.0621
     32 C           5.7026    7.9117   -3.6413 C.ar    1  UNL1       -0.0220
     33 C           6.6786    7.7249   -2.5024 C.3     1  UNL1       -0.0197
     34 H           7.2364    6.8000   -2.6945 H       1  UNL1        0.0344
     35 C           5.9456    7.5548   -1.1706 C.3     1  UNL1       -0.0586
     36 H           5.2425    6.7286   -1.2359 H       1  UNL1        0.0235
     37 H           5.3976    8.4561   -0.9060 H       1  UNL1        0.0235
     38 H           6.6591    7.3450   -0.3756 H       1  UNL1        0.0235
     39 C           7.6601    8.8976   -2.4222 C.3     1  UNL1       -0.0586
     40 H           8.4279    8.6981   -1.6768 H       1  UNL1        0.0235
     41 H           7.1432    9.8128   -2.1420 H       1  UNL1        0.0235
     42 H           8.1441    9.0683   -3.3822 H       1  UNL1        0.0235
     43 C           8.8157    4.7911   -7.5190 C.2     1  UNL1       -0.0545
     44 H           9.3109    5.6870   -7.8531 H       1  UNL1        0.0595
     45 C           9.0056    3.5976   -8.1999 C.2     1  UNL1       -0.0619
     46 H           9.6431    3.5614   -9.0710 H       1  UNL1        0.0616
     47 C           8.3713    2.4573   -7.7499 C.2     1  UNL1       -0.0412
     48 H           8.5175    1.5220   -8.2635 H       1  UNL1        0.0634
     49 C           7.5398    2.5431   -6.6300 C.2     1  UNL1        0.0538
     50 C           6.7680    1.4061   -6.1430 C.3     1  UNL1        0.1177
     51 C           6.9721    0.0758   -6.8136 C.3     1  UNL1       -0.0341
     52 H           6.3283   -0.6772   -6.3651 H       1  UNL1        0.0255
     53 H           8.0111   -0.2338   -6.7022 H       1  UNL1        0.0255
     54 H           6.7519    0.1373   -7.8781 H       1  UNL1        0.0255
     55 C           5.0545    0.5735   -4.7849 C.ar    1  UNL1        0.0557
     56 C           5.3833   -0.2751   -3.7194 C.ar    1  UNL1       -0.0219
     57 C           6.6690   -0.1024   -2.9442 C.3     1  UNL1       -0.0197
     58 H           7.1414    0.8393   -3.2540 H       1  UNL1        0.0344
     59 C           6.3879   -0.0078   -1.4426 C.3     1  UNL1       -0.0586
     60 H           5.6463    0.7643   -1.2474 H       1  UNL1        0.0235
     61 H           7.2997    0.2481   -0.9102 H       1  UNL1        0.0235
     62 H           6.0179   -0.9511   -1.0488 H       1  UNL1        0.0235
     63 C           7.6312   -1.2557   -3.2403 C.3     1  UNL1       -0.0586
     64 H           8.5645   -1.1164   -2.7001 H       1  UNL1        0.0235
     65 H           7.8571   -1.3087   -4.3030 H       1  UNL1        0.0235
     66 H           7.1972   -2.2059   -2.9365 H       1  UNL1        0.0235
     67 C           4.5091   -1.2972   -3.3783 C.ar    1  UNL1       -0.0565
     68 H           4.7644   -1.9668   -2.5719 H       1  UNL1        0.0621
     69 C           3.3230   -1.4804   -4.0601 C.ar    1  UNL1       -0.0611
     70 H           2.6599   -2.2891   -3.7919 H       1  UNL1        0.0618
     71 C           2.9861   -0.6139   -5.0809 C.ar    1  UNL1       -0.0565
     72 H           2.0516   -0.7520   -5.6019 H       1  UNL1        0.0621
     73 C           3.8295    0.4217   -5.4554 C.ar    1  UNL1       -0.0219
     74 C           3.4070    1.3590   -6.5661 C.3     1  UNL1       -0.0197
     75 H           4.0982    2.2108   -6.5808 H       1  UNL1        0.0344
     76 C           1.9923    1.8964   -6.3293 C.3     1  UNL1       -0.0586
     77 H           1.7618    2.6726   -7.0552 H       1  UNL1        0.0235
     78 H           1.9019    2.3201   -5.3322 H       1  UNL1        0.0235
     79 H           1.2507    1.1091   -6.4355 H       1  UNL1        0.0235
     80 C           3.4657    0.6554   -7.9252 C.3     1  UNL1       -0.0586
     81 H           3.1753    1.3433   -8.7167 H       1  UNL1        0.0235
     82 H           2.7864   -0.1940   -7.9428 H       1  UNL1        0.0235
     83 H           4.4678    0.2924   -8.1360 H       1  UNL1        0.0235
@<TRIPOS>BOND
     1    46    45    1
     2    25    22    1
     3    81    80    1
     4    23    22    1
     5    24    22    1
     6    48    47    1
     7    22    16    1
     8    45    47    1
     9    45    43    2
    10    83    80    1
    11    82    80    1
    12    80    74    1
    13    54    51    1
    14    44    43    1
    15    47    49    2
    16    43     2    1
    17    20    18    1
    18     7     6    1
    19    77    76    1
    20    17    16    1
    21    16    18    1
    22    16    15    1
    23     8     6    1
    24    51    53    1
    25    51    52    1
    26    51    50    1
    27    49    50    1
    28    49     1    1
    29    75    74    1
    30    74    76    1
    31    74    73    1
    32    18    21    1
    33    18    19    1
    34     6     9    1
    35     6     4    1
    36    27    26    1
    37    79    76    1
    38     2     1    1
    39     2     4    1
    40    76    78    1
    41    50     5    1
    42    15    26   ar
    43    15    14   ar
    44    26    28   ar
    45    72    71    1
    46     4     3    1
    47     4    10    1
    48    73    71   ar
    49    73    55   ar
    50    12    10    1
    51     5    55    1
    52    71    69   ar
    53    55    56   ar
    54     3    14    1
    55    14    32   ar
    56    10    11    1
    57    10    13    1
    58    28    29    1
    59    28    30   ar
    60    65    63    1
    61    69    70    1
    62    69    67   ar
    63    56    67   ar
    64    56    57    1
    65    32    30   ar
    66    32    33    1
    67    30    31    1
    68    42    39    1
    69    67    68    1
    70    58    57    1
    71    63    57    1
    72    63    66    1
    73    63    64    1
    74    57    59    1
    75    34    33    1
    76    33    39    1
    77    33    35    1
    78    39    41    1
    79    39    40    1
    80    59    60    1
    81    59    62    1
    82    59    61    1
    83    36    35    1
    84    35    37    1
    85    35    38    1
