@<TRIPOS>MOLECULE
2,3,4
 48 49 0 0 0
SMALL
GASTEIGER

@<TRIPOS>ATOM
      1 SI          7.1109   12.5962    2.6232 Si      1  UNL1        0.0000
      2 N           8.2646    8.6007    6.5497 N.pl3   1  UNL1        0.0000
      3 N           9.4507   10.4306    4.8113 N.3     1  UNL1        0.0000
      4 N           7.8998   11.6782    3.8392 N.3     1  UNL1        0.0000
      5 C           6.0699    7.8046    7.0107 C.ar    1  UNL1        0.0000
      6 H           5.9245    7.7535    5.9347 H       1  UNL1        0.0000
      7 C           5.0799    7.3932    7.8784 C.ar    1  UNL1        0.0000
      8 H           4.1224    7.0724    7.4877 H       1  UNL1        0.0000
      9 C           5.3040    7.3660    9.2490 C.ar    1  UNL1        0.0000
     10 H           4.5262    7.0479    9.9260 H       1  UNL1        0.0000
     11 C           6.5517    7.7320    9.7282 C.ar    1  UNL1        0.0000
     12 H           6.7457    7.6979   10.7914 H       1  UNL1        0.0000
     13 C           7.5576    8.1412    8.8757 C.ar    1  UNL1        0.0000
     14 H           8.5126    8.4213    9.2934 H       1  UNL1        0.0000
     15 C           7.3425    8.2195    7.4809 C.ar    1  UNL1        0.0000
     16 C           9.6534    8.6486    6.9969 C.3     1  UNL1        0.0000
     17 H           9.8528    7.7651    7.6259 H       1  UNL1        0.0000
     18 H           9.8685    9.5480    7.6033 H       1  UNL1        0.0000
     19 C          10.6260    8.5991    5.8072 C.3     1  UNL1        0.0000
     20 H          11.6050    8.2600    6.1536 H       1  UNL1        0.0000
     21 H          10.2401    7.8820    5.0765 H       1  UNL1        0.0000
     22 C          10.7749    9.9667    5.1361 C.3     1  UNL1        0.0000
     23 H          11.2577   10.6652    5.8387 H       1  UNL1        0.0000
     24 H          11.4194    9.8914    4.2447 H       1  UNL1        0.0000
     25 C           9.1819   11.3537    3.9213 C.3     1  UNL1        0.0000
     26 C          10.2378   12.0386    3.1264 C.ar    1  UNL1        0.0000
     27 C          10.9832   13.0535    3.7173 C.ar    1  UNL1        0.0000
     28 H          10.7873   13.3278    4.7440 H       1  UNL1        0.0000
     29 C          11.9570   13.7164    2.9920 C.ar    1  UNL1        0.0000
     30 H          12.5257   14.5095    3.4547 H       1  UNL1        0.0000
     31 C          12.2035   13.3645    1.6755 C.ar    1  UNL1        0.0000
     32 H          12.9650   13.8813    1.1104 H       1  UNL1        0.0000
     33 C          11.4700   12.3488    1.0854 C.ar    1  UNL1        0.0000
     34 H          11.6612   12.0711    0.0590 H       1  UNL1        0.0000
     35 C          10.4892   11.6892    1.8052 C.ar    1  UNL1        0.0000
     36 H           9.9122   10.9013    1.3470 H       1  UNL1        0.0000
     37 C           5.4573   13.0808    3.4424 C.3     1  UNL1        0.0000
     38 H           4.8510   12.1963    3.6092 H       1  UNL1        0.0000
     39 H           4.8860   13.7703    2.8292 H       1  UNL1        0.0000
     40 H           5.6321   13.5533    4.4058 H       1  UNL1        0.0000
     41 C           6.7876   11.5023    1.0768 C.3     1  UNL1        0.0000
     42 H           7.6077   11.5523    0.3665 H       1  UNL1        0.0000
     43 H           5.8884   11.8068    0.5500 H       1  UNL1        0.0000
     44 H           6.6704   10.4636    1.3789 H       1  UNL1        0.0000
     45 C           7.9975   14.2002    2.0598 C.3     1  UNL1        0.0000
     46 H           8.3227   14.7890    2.9121 H       1  UNL1        0.0000
     47 H           7.3322   14.8206    1.4683 H       1  UNL1        0.0000
     48 H           8.8746   13.9909    1.4561 H       1  UNL1        0.0000
@<TRIPOS>BOND
     1    34    33    1
     2    42    41    1
     3    43    41    1
     4    41    44    1
     5    41     1    1
     6    33    31   ar
     7    33    35   ar
     8    32    31    1
     9    36    35    1
    10    48    45    1
    11    47    45    1
    12    31    29   ar
    13    35    26   ar
    14    45     1    1
    15    45    46    1
    16     1    37    1
    17     1     4    1
    18    39    37    1
    19    29    30    1
    20    29    27   ar
    21    26    27   ar
    22    26    25    1
    23    37    38    1
    24    37    40    1
    25    27    28    1
    26     4    25    1
    27    25     3    1
    28    24    22    1
    29     3    22    1
    30    21    19    1
    31    22    19    1
    32    22    23    1
    33    19    20    1
    34    19    16    1
    35     6     5    1
    36     2    16    1
    37     2    15    1
    38    16    18    1
    39    16    17    1
    40     5    15   ar
    41     5     7   ar
    42    15    13   ar
    43     8     7    1
    44     7     9   ar
    45    13    14    1
    46    13    11   ar
    47     9    11   ar
    48     9    10    1
    49    11    12    1
