@<TRIPOS>MOLECULE
2,3,4
 48 49 0 0 0
SMALL
GASTEIGER

@<TRIPOS>ATOM
      1 SI          6.6542    0.0941   10.8216 Si      1  UNL1        0.0000
      2 N           2.7229    3.3155   13.1083 N.pl3   1  UNL1        0.0000
      3 N           3.4856    2.3042   10.7011 N.3     1  UNL1        0.0000
      4 N           5.3193    1.1493   11.0586 N.3     1  UNL1        0.0000
      5 C           2.2988    5.6081   13.8967 C.ar    1  UNL1        0.0000
      6 H           1.7940    5.8860   12.9835 H       1  UNL1        0.0000
      7 C           2.4413    6.5552   14.8910 C.ar    1  UNL1        0.0000
      8 H           2.0341    7.5450   14.7385 H       1  UNL1        0.0000
      9 C           3.1018    6.2589   16.0719 C.ar    1  UNL1        0.0000
     10 H           3.2104    7.0063   16.8432 H       1  UNL1        0.0000
     11 C           3.6077    4.9801   16.2536 C.ar    1  UNL1        0.0000
     12 H           4.0996    4.7243   17.1831 H       1  UNL1        0.0000
     13 C           3.4697    4.0243   15.2683 C.ar    1  UNL1        0.0000
     14 H           3.8148    3.0097   15.4325 H       1  UNL1        0.0000
     15 C           2.8324    4.3122   14.0448 C.ar    1  UNL1        0.0000
     16 C           1.5467    3.3655   12.2592 C.3     1  UNL1        0.0000
     17 H           0.7502    3.9263   12.7706 H       1  UNL1        0.0000
     18 H           1.1914    2.3346   12.1180 H       1  UNL1        0.0000
     19 C           1.7898    3.9849   10.8679 C.3     1  UNL1        0.0000
     20 H           0.8441    4.3198   10.4352 H       1  UNL1        0.0000
     21 H           2.4575    4.8446   10.9681 H       1  UNL1        0.0000
     22 C           2.4401    2.9467    9.9517 C.3     1  UNL1        0.0000
     23 H           1.6794    2.2116    9.6422 H       1  UNL1        0.0000
     24 H           2.8301    3.4245    9.0384 H       1  UNL1        0.0000
     25 C           4.4308    1.5621   10.1775 C.3     1  UNL1        0.0000
     26 C           4.5222    1.2866    8.7175 C.ar    1  UNL1        0.0000
     27 C           5.5765    1.8273    7.9877 C.ar    1  UNL1        0.0000
     28 H           6.3250    2.4180    8.4958 H       1  UNL1        0.0000
     29 C           5.6700    1.6072    6.6254 C.ar    1  UNL1        0.0000
     30 H           6.4901    2.0345    6.0669 H       1  UNL1        0.0000
     31 C           4.7177    0.8367    5.9790 C.ar    1  UNL1        0.0000
     32 H           4.7940    0.6602    4.9162 H       1  UNL1        0.0000
     33 C           3.6690    0.2918    6.7002 C.ar    1  UNL1        0.0000
     34 H           2.9273   -0.3138    6.2001 H       1  UNL1        0.0000
     35 C           3.5646    0.5222    8.0607 C.ar    1  UNL1        0.0000
     36 H           2.7470    0.0924    8.6198 H       1  UNL1        0.0000
     37 C           8.2440    1.1443   10.5603 C.3     1  UNL1        0.0000
     38 H           8.5189    1.2017    9.5111 H       1  UNL1        0.0000
     39 H           9.0922    0.7241   11.0918 H       1  UNL1        0.0000
     40 H           8.0956    2.1608   10.9196 H       1  UNL1        0.0000
     41 C           6.8045   -0.9600   12.4080 C.3     1  UNL1        0.0000
     42 H           7.2200   -0.3793   13.2242 H       1  UNL1        0.0000
     43 H           7.4477   -1.8210   12.2545 H       1  UNL1        0.0000
     44 H           5.8254   -1.3184   12.7145 H       1  UNL1        0.0000
     45 C           6.4880   -1.1504    9.3708 C.3     1  UNL1        0.0000
     46 H           5.5158   -1.6350    9.3775 H       1  UNL1        0.0000
     47 H           7.2413   -1.9285    9.4461 H       1  UNL1        0.0000
     48 H           6.6062   -0.6742    8.4030 H       1  UNL1        0.0000
@<TRIPOS>BOND
     1    32    31    1
     2    31    29   ar
     3    31    33   ar
     4    30    29    1
     5    34    33    1
     6    29    27   ar
     7    33    35   ar
     8    27    28    1
     9    27    26   ar
    10    35    36    1
    11    35    26   ar
    12    48    45    1
    13    26    25    1
    14    24    22    1
    15    45    46    1
    16    45    47    1
    17    45     1    1
    18    38    37    1
    19    23    22    1
    20    22     3    1
    21    22    19    1
    22    25     3    1
    23    25     4    1
    24    20    19    1
    25    37     1    1
    26    37    40    1
    27    37    39    1
    28     1     4    1
    29     1    41    1
    30    19    21    1
    31    19    16    1
    32    18    16    1
    33    43    41    1
    34    16    17    1
    35    16     2    1
    36    41    44    1
    37    41    42    1
    38     6     5    1
    39     2    15    1
    40     5    15   ar
    41     5     7   ar
    42    15    13   ar
    43     8     7    1
    44     7     9   ar
    45    13    14    1
    46    13    11   ar
    47     9    11   ar
    48     9    10    1
    49    11    12    1
