@<TRIPOS>MOLECULE
2,3,4
 48 49 0 0 0
SMALL
GASTEIGER

@<TRIPOS>ATOM
      1 SI          2.1001   -0.5733   13.1680 Si      1  UNL1        0.0000
      2 N           5.5866    3.7745   12.6508 N.pl3   1  UNL1        0.0000
      3 N           5.2164    1.5106   14.0798 N.3     1  UNL1        0.0000
      4 N           3.3917    0.5481   13.3271 N.3     1  UNL1        0.0000
      5 C           5.1260    4.8280   10.5384 C.ar    1  UNL1        0.0000
      6 H           5.3557    3.8853   10.0570 H       1  UNL1        0.0000
      7 C           4.7818    5.9303    9.7829 C.ar    1  UNL1        0.0000
      8 H           4.6972    5.8373    8.7083 H       1  UNL1        0.0000
      9 C           4.5668    7.1601   10.3878 C.ar    1  UNL1        0.0000
     10 H           4.2934    8.0210    9.7966 H       1  UNL1        0.0000
     11 C           4.7342    7.2713   11.7586 C.ar    1  UNL1        0.0000
     12 H           4.5903    8.2277   12.2412 H       1  UNL1        0.0000
     13 C           5.0847    6.1770   12.5242 C.ar    1  UNL1        0.0000
     14 H           5.2012    6.2995   13.5906 H       1  UNL1        0.0000
     15 C           5.2509    4.9059   11.9395 C.ar    1  UNL1        0.0000
     16 C           6.4488    4.0227   13.7981 C.3     1  UNL1        0.0000
     17 H           7.1753    4.8046   13.5230 H       1  UNL1        0.0000
     18 H           5.8817    4.3887   14.6715 H       1  UNL1        0.0000
     19 C           7.2287    2.7713   14.2171 C.3     1  UNL1        0.0000
     20 H           8.0626    3.0614   14.8605 H       1  UNL1        0.0000
     21 H           7.6183    2.2839   13.3192 H       1  UNL1        0.0000
     22 C           6.3214    1.7878   14.9546 C.3     1  UNL1        0.0000
     23 H           6.8775    0.8718   15.2070 H       1  UNL1        0.0000
     24 H           5.9813    2.2345   15.9051 H       1  UNL1        0.0000
     25 C           4.2899    0.6084   14.2894 C.3     1  UNL1        0.0000
     26 C           4.2093   -0.1985   15.5370 C.ar    1  UNL1        0.0000
     27 C           5.0919   -1.2358   15.8141 C.ar    1  UNL1        0.0000
     28 H           5.8596   -1.4936   15.1002 H       1  UNL1        0.0000
     29 C           4.9716   -1.9551   16.9906 C.ar    1  UNL1        0.0000
     30 H           5.6540   -2.7674   17.1944 H       1  UNL1        0.0000
     31 C           3.9805   -1.6386   17.9042 C.ar    1  UNL1        0.0000
     32 H           3.8901   -2.2015   18.8215 H       1  UNL1        0.0000
     33 C           3.1046   -0.5992   17.6376 C.ar    1  UNL1        0.0000
     34 H           2.3311   -0.3481   18.3486 H       1  UNL1        0.0000
     35 C           3.2164    0.1174   16.4598 C.ar    1  UNL1        0.0000
     36 H           2.5344    0.9272   16.2420 H       1  UNL1        0.0000
     37 C           2.4907   -2.3395   13.8054 C.3     1  UNL1        0.0000
     38 H           3.4533   -2.6874   13.4418 H       1  UNL1        0.0000
     39 H           1.7393   -3.0459   13.4669 H       1  UNL1        0.0000
     40 H           2.5158   -2.3832   14.8897 H       1  UNL1        0.0000
     41 C           0.5158    0.0423   14.0653 C.3     1  UNL1        0.0000
     42 H           0.4271   -0.3968   15.0547 H       1  UNL1        0.0000
     43 H          -0.3819   -0.2192   13.5138 H       1  UNL1        0.0000
     44 H           0.5293    1.1229   14.1842 H       1  UNL1        0.0000
     45 C           1.7917   -0.7196   11.2878 C.3     1  UNL1        0.0000
     46 H           1.3899    0.2037   10.8824 H       1  UNL1        0.0000
     47 H           1.0885   -1.5144   11.0600 H       1  UNL1        0.0000
     48 H           2.7232   -0.9344   10.7707 H       1  UNL1        0.0000
@<TRIPOS>BOND
     1     8     7    1
     2     7     9   ar
     3     7     5   ar
     4    10     9    1
     5     6     5    1
     6     9    11   ar
     7     5    15   ar
     8    48    45    1
     9    46    45    1
    10    47    45    1
    11    45     1    1
    12    11    12    1
    13    11    13   ar
    14    15    13   ar
    15    15     2    1
    16    13    14    1
    17     2    16    1
    18     1     4    1
    19     1    37    1
    20     1    41    1
    21    21    19    1
    22     4    25    1
    23    38    37    1
    24    39    37    1
    25    43    41    1
    26    17    16    1
    27    16    19    1
    28    16    18    1
    29    37    40    1
    30    41    44    1
    31    41    42    1
    32     3    25    1
    33     3    22    1
    34    19    20    1
    35    19    22    1
    36    25    26    1
    37    22    23    1
    38    22    24    1
    39    28    27    1
    40    26    27   ar
    41    26    35   ar
    42    27    29   ar
    43    36    35    1
    44    35    33   ar
    45    29    30    1
    46    29    31   ar
    47    33    31   ar
    48    33    34    1
    49    31    32    1
