@<TRIPOS>MOLECULE
2,4,5
 49 50 0 0 0
SMALL
GASTEIGER

@<TRIPOS>ATOM
      1 SI          7.3480   10.5196    2.7851 Si      1  UNL1        0.0000
      2 N           6.6863    6.4412    6.8738 N.pl3   1  UNL1        0.0000
      3 H           6.5629    5.7546    6.1281 H       1  UNL1        0.0000
      4 N           5.3730    8.2244    5.2124 N.3     1  UNL1        0.0000
      5 N           6.7695    9.3786    3.9235 N.3     1  UNL1        0.0000
      6 C           7.8342    6.1716    7.6314 C.ar    1  UNL1        0.0000
      7 C           8.8434    5.3753    7.0765 C.ar    1  UNL1        0.0000
      8 H           8.6858    4.9426    6.0991 H       1  UNL1        0.0000
      9 C          10.0132    5.1408    7.7688 C.ar    1  UNL1        0.0000
     10 H          10.7879    4.5301    7.3271 H       1  UNL1        0.0000
     11 C          10.1965    5.6650    9.0416 C.ar    1  UNL1        0.0000
     12 H          11.1137    5.4820    9.5800 H       1  UNL1        0.0000
     13 C           9.1751    6.3971    9.6235 C.ar    1  UNL1        0.0000
     14 H           9.2899    6.7758   10.6291 H       1  UNL1        0.0000
     15 C           7.9979    6.6388    8.9370 C.ar    1  UNL1        0.0000
     16 H           7.2079    7.1913    9.4181 H       1  UNL1        0.0000
     17 C           5.4350    6.7095    7.5756 C.3     1  UNL1        0.0000
     18 H           5.4766    7.7142    8.0070 H       1  UNL1        0.0000
     19 H           5.3071    5.9809    8.3905 H       1  UNL1        0.0000
     20 C           4.2350    6.6197    6.6357 C.3     1  UNL1        0.0000
     21 H           4.3376    5.7333    6.0081 H       1  UNL1        0.0000
     22 H           3.3242    6.5090    7.2278 H       1  UNL1        0.0000
     23 C           4.0932    7.8649    5.7537 C.3     1  UNL1        0.0000
     24 H           3.3422    7.6830    4.9699 H       1  UNL1        0.0000
     25 H           3.7197    8.6949    6.3751 H       1  UNL1        0.0000
     26 C           5.5228    9.0383    4.2036 C.3     1  UNL1        0.0000
     27 C           4.3716    9.5603    3.4257 C.ar    1  UNL1        0.0000
     28 C           3.8716    8.8142    2.3643 C.ar    1  UNL1        0.0000
     29 H           4.3296    7.8654    2.1267 H       1  UNL1        0.0000
     30 C           2.8091    9.2909    1.6182 C.ar    1  UNL1        0.0000
     31 H           2.4291    8.7095    0.7905 H       1  UNL1        0.0000
     32 C           2.2336   10.5121    1.9278 C.ar    1  UNL1        0.0000
     33 H           1.4061   10.8854    1.3423 H       1  UNL1        0.0000
     34 C           2.7215   11.2535    2.9904 C.ar    1  UNL1        0.0000
     35 H           2.2734   12.2058    3.2361 H       1  UNL1        0.0000
     36 C           3.7842   10.7790    3.7389 C.ar    1  UNL1        0.0000
     37 H           4.1632   11.3577    4.5689 H       1  UNL1        0.0000
     38 C           9.1538   10.0043    2.4327 C.3     1  UNL1        0.0000
     39 H           9.2793    9.7043    1.3975 H       1  UNL1        0.0000
     40 H           9.4351    9.1645    3.0597 H       1  UNL1        0.0000
     41 H           9.8497   10.8176    2.6144 H       1  UNL1        0.0000
     42 C           6.4104   10.6924    1.1279 C.3     1  UNL1        0.0000
     43 H           6.2331    9.7285    0.6608 H       1  UNL1        0.0000
     44 H           6.9784   11.2980    0.4279 H       1  UNL1        0.0000
     45 H           5.4445   11.1681    1.2664 H       1  UNL1        0.0000
     46 C           7.3690   12.2812    3.5630 C.3     1  UNL1        0.0000
     47 H           7.9370   12.3292    4.4892 H       1  UNL1        0.0000
     48 H           6.3621   12.6267    3.7790 H       1  UNL1        0.0000
     49 H           7.8126   12.9945    2.8755 H       1  UNL1        0.0000
@<TRIPOS>BOND
     1    44    42    1
     2    43    42    1
     3    31    30    1
     4    42    45    1
     5    42     1    1
     6    33    32    1
     7    39    38    1
     8    30    32   ar
     9    30    28   ar
    10    32    34   ar
    11    29    28    1
    12    28    27   ar
    13    38    41    1
    14    38     1    1
    15    38    40    1
    16     1    46    1
    17     1     5    1
    18    49    46    1
    19    34    35    1
    20    34    36   ar
    21    27    36   ar
    22    27    26    1
    23    46    48    1
    24    46    47    1
    25    36    37    1
    26     5    26    1
    27    26     4    1
    28    24    23    1
    29     4    23    1
    30    23    25    1
    31    23    20    1
    32    21    20    1
    33     8     7    1
    34     3     2    1
    35    20    22    1
    36    20    17    1
    37     2    17    1
    38     2     6    1
    39     7     6   ar
    40     7     9   ar
    41    10     9    1
    42    17    18    1
    43    17    19    1
    44     6    15   ar
    45     9    11   ar
    46    15    16    1
    47    15    13   ar
    48    11    12    1
    49    11    13   ar
    50    13    14    1
