@<TRIPOS>MOLECULE
2,3,4
 48 49 0 0 0
SMALL
GASTEIGER

@<TRIPOS>ATOM
      1 SI          7.4004    7.5510    2.7956 Si      1  UNL1        0.0000
      2 N           6.5784   11.3733    6.9038 N.pl3   1  UNL1        0.0000
      3 N           5.2696    9.9931    4.9143 N.3     1  UNL1        0.0000
      4 N           6.7257    8.8587    3.6788 N.3     1  UNL1        0.0000
      5 C           7.6844   11.2456    9.1153 C.ar    1  UNL1        0.0000
      6 H           6.8161   10.8289    9.6037 H       1  UNL1        0.0000
      7 C           8.8342   11.4539    9.8509 C.ar    1  UNL1        0.0000
      8 H           8.8417   11.1934   10.9004 H       1  UNL1        0.0000
      9 C           9.9742   11.9887    9.2714 C.ar    1  UNL1        0.0000
     10 H          10.8674   12.1428    9.8574 H       1  UNL1        0.0000
     11 C           9.9376   12.3567    7.9316 C.ar    1  UNL1        0.0000
     12 H          10.8045   12.8290    7.4865 H       1  UNL1        0.0000
     13 C           8.8013   12.1547    7.1769 C.ar    1  UNL1        0.0000
     14 H           8.7242   12.5361    6.1587 H       1  UNL1        0.0000
     15 C           7.6420   11.5536    7.7366 C.ar    1  UNL1        0.0000
     16 C           5.2811   11.1245    7.5211 C.3     1  UNL1        0.0000
     17 H           5.1522   11.8142    8.3720 H       1  UNL1        0.0000
     18 H           5.1842   10.0938    7.9085 H       1  UNL1        0.0000
     19 C           4.1454   11.4015    6.5238 C.3     1  UNL1        0.0000
     20 H           4.3729   12.3371    6.0088 H       1  UNL1        0.0000
     21 H           3.2062   11.5204    7.0692 H       1  UNL1        0.0000
     22 C           3.9790   10.2812    5.4920 C.3     1  UNL1        0.0000
     23 H           3.5848    9.3820    5.9941 H       1  UNL1        0.0000
     24 H           3.2416   10.5791    4.7283 H       1  UNL1        0.0000
     25 C           5.4562    9.1235    3.9513 C.3     1  UNL1        0.0000
     26 C           4.3197    8.4813    3.2363 C.ar    1  UNL1        0.0000
     27 C           3.8162    7.2565    3.6591 C.ar    1  UNL1        0.0000
     28 H           4.2668    6.7563    4.5045 H       1  UNL1        0.0000
     29 C           2.7496    6.6765    2.9948 C.ar    1  UNL1        0.0000
     30 H           2.3650    5.7229    3.3261 H       1  UNL1        0.0000
     31 C           2.1776    7.3139    1.9067 C.ar    1  UNL1        0.0000
     32 H           1.3474    6.8581    1.3878 H       1  UNL1        0.0000
     33 C           2.6722    8.5370    1.4858 C.ar    1  UNL1        0.0000
     34 H           2.2270    9.0365    0.6378 H       1  UNL1        0.0000
     35 C           3.7356    9.1227    2.1497 C.ar    1  UNL1        0.0000
     36 H           4.1256   10.0772    1.8272 H       1  UNL1        0.0000
     37 C           6.3775    6.8472    1.3343 C.3     1  UNL1        0.0000
     38 H           5.5145    6.2839    1.6741 H       1  UNL1        0.0000
     39 H           6.9862    6.1823    0.7300 H       1  UNL1        0.0000
     40 H           6.0121    7.6376    0.6854 H       1  UNL1        0.0000
     41 C           7.7585    6.1442    4.0522 C.3     1  UNL1        0.0000
     42 H           8.0823    6.5749    4.9999 H       1  UNL1        0.0000
     43 H           8.5352    5.4721    3.7012 H       1  UNL1        0.0000
     44 H           6.8761    5.5411    4.2476 H       1  UNL1        0.0000
     45 C           9.0491    8.2003    2.0797 C.3     1  UNL1        0.0000
     46 H           8.9006    8.7135    1.1346 H       1  UNL1        0.0000
     47 H           9.7454    7.3882    1.8986 H       1  UNL1        0.0000
     48 H           9.5099    8.8941    2.7762 H       1  UNL1        0.0000
@<TRIPOS>BOND
     1    34    33    1
     2    40    37    1
     3    39    37    1
     4    46    45    1
     5    37    38    1
     6    37     1    1
     7    32    31    1
     8    33    31   ar
     9    33    35   ar
    10    36    35    1
    11    47    45    1
    12    31    29   ar
    13    45    48    1
    14    45     1    1
    15    35    26   ar
    16     1     4    1
    17     1    41    1
    18    29    30    1
    19    29    27   ar
    20    26    27   ar
    21    26    25    1
    22    27    28    1
    23     4    25    1
    24    43    41    1
    25    25     3    1
    26    41    44    1
    27    41    42    1
    28    24    22    1
    29     3    22    1
    30    22    23    1
    31    22    19    1
    32    20    19    1
    33    14    13    1
    34    19    21    1
    35    19    16    1
    36     2    16    1
    37     2    15    1
    38    13    15   ar
    39    13    11   ar
    40    12    11    1
    41    16    18    1
    42    16    17    1
    43    15     5   ar
    44    11     9   ar
    45     5     6    1
    46     5     7   ar
    47     9     7   ar
    48     9    10    1
    49     7     8    1
