@<TRIPOS>MOLECULE
2,4,5
 49 50 0 0 0
SMALL
GASTEIGER

@<TRIPOS>ATOM
      1 SI          7.0794    5.4191    2.7883 Si      1  UNL1        0.0000
      2 N           8.2978    9.5999    6.5279 N.pl3   1  UNL1        0.0000
      3 H           8.2570   10.1752    5.6850 H       1  UNL1        0.0000
      4 N           9.4057    7.4855    5.0682 N.3     1  UNL1        0.0000
      5 N           7.8435    6.2644    4.0693 N.3     1  UNL1        0.0000
      6 C          10.1584    5.9536    3.3090 C.ar    1  UNL1        0.0000
      7 C          10.9131    4.8975    3.8049 C.ar    1  UNL1        0.0000
      8 H          10.7493    4.5560    4.8162 H       1  UNL1        0.0000
      9 C          11.8595    4.2796    3.0072 C.ar    1  UNL1        0.0000
     10 H          12.4347    3.4523    3.3975 H       1  UNL1        0.0000
     11 C          12.0694    4.7184    1.7109 C.ar    1  UNL1        0.0000
     12 H          12.8080    4.2349    1.0881 H       1  UNL1        0.0000
     13 C          11.3300    5.7797    1.2163 C.ar    1  UNL1        0.0000
     14 H          11.4948    6.1282    0.2067 H       1  UNL1        0.0000
     15 C          10.3783    6.3947    2.0098 C.ar    1  UNL1        0.0000
     16 H           9.7981    7.2202    1.6287 H       1  UNL1        0.0000
     17 C           9.1218    6.5966    4.1561 C.3     1  UNL1        0.0000
     18 C          10.7365    7.9304    5.3643 C.3     1  UNL1        0.0000
     19 H          11.3957    7.8891    4.4841 H       1  UNL1        0.0000
     20 H          11.1749    7.2781    6.1366 H       1  UNL1        0.0000
     21 C          10.6761    9.3622    5.9057 C.3     1  UNL1        0.0000
     22 H          10.4095   10.0454    5.0968 H       1  UNL1        0.0000
     23 H          11.6657    9.6394    6.2744 H       1  UNL1        0.0000
     24 C           9.6603    9.4963    7.0383 C.3     1  UNL1        0.0000
     25 H           9.7294    8.6132    7.6808 H       1  UNL1        0.0000
     26 H           9.8990   10.3887    7.6371 H       1  UNL1        0.0000
     27 C           7.2748    9.9444    7.4240 C.ar    1  UNL1        0.0000
     28 C           7.3706    9.7295    8.8014 C.ar    1  UNL1        0.0000
     29 H           8.2726    9.3228    9.2278 H       1  UNL1        0.0000
     30 C           6.3073   10.0383    9.6323 C.ar    1  UNL1        0.0000
     31 H           6.3945    9.8549   10.6937 H       1  UNL1        0.0000
     32 C           5.1448   10.5914    9.1220 C.ar    1  UNL1        0.0000
     33 H           4.3184   10.8269    9.7748 H       1  UNL1        0.0000
     34 C           5.0700   10.8734    7.7637 C.ar    1  UNL1        0.0000
     35 H           4.1861   11.3489    7.3627 H       1  UNL1        0.0000
     36 C           6.1245   10.5710    6.9282 C.ar    1  UNL1        0.0000
     37 H           6.0836   10.8229    5.8799 H       1  UNL1        0.0000
     38 C           7.9072    3.7536    2.3319 C.3     1  UNL1        0.0000
     39 H           8.1527    3.1739    3.2165 H       1  UNL1        0.0000
     40 H           8.8277    3.9042    1.7777 H       1  UNL1        0.0000
     41 H           7.2466    3.1509    1.7175 H       1  UNL1        0.0000
     42 C           5.3222    5.0227    3.4267 C.3     1  UNL1        0.0000
     43 H           4.8367    5.9243    3.7823 H       1  UNL1        0.0000
     44 H           5.3279    4.2917    4.2304 H       1  UNL1        0.0000
     45 H           4.7144    4.6129    2.6266 H       1  UNL1        0.0000
     46 C           6.9189    6.4711    1.1947 C.3     1  UNL1        0.0000
     47 H           7.7532    6.3092    0.5186 H       1  UNL1        0.0000
     48 H           6.8970    7.5266    1.4516 H       1  UNL1        0.0000
     49 H           6.0091    6.2387    0.6486 H       1  UNL1        0.0000
@<TRIPOS>BOND
     1    14    13    1
     2    47    46    1
     3    49    46    1
     4    12    11    1
     5    46    48    1
     6    46     1    1
     7    13    11   ar
     8    13    15   ar
     9    16    15    1
    10    11     9   ar
    11    41    38    1
    12    40    38    1
    13    15     6   ar
    14    38     1    1
    15    38    39    1
    16    45    42    1
    17     1    42    1
    18     1     5    1
    19     9    10    1
    20     9     7   ar
    21     6     7   ar
    22     6    17    1
    23    42    43    1
    24    42    44    1
    25     7     8    1
    26     5    17    1
    27    17     4    1
    28    19    18    1
    29     4    18    1
    30    22    21    1
    31    18    21    1
    32    18    20    1
    33     3     2    1
    34    37    36    1
    35    21    23    1
    36    21    24    1
    37     2    24    1
    38     2    27    1
    39    36    27   ar
    40    36    34   ar
    41    24    26    1
    42    24    25    1
    43    35    34    1
    44    27    28   ar
    45    34    32   ar
    46    28    29    1
    47    28    30   ar
    48    32    30   ar
    49    32    33    1
    50    30    31    1
