@<TRIPOS>MOLECULE
1,2,3
 45 44 0 0 0
SMALL
GASTEIGER

@<TRIPOS>ATOM
      1 N           2.0174    9.2489   10.7571 N.3     1  UNL1        0.0000
      2 N           3.7336    6.2845    9.9415 N.3     1  UNL1        0.0000
      3 N           1.2174    6.7323   10.7274 N.3     1  UNL1        0.0000
      4 SI          2.2737   10.8707   11.2454 Si      1  UNL1        0.0000
      5 SI          4.9793    6.7173    8.8620 Si      1  UNL1        0.0000
      6 C           1.0450    8.9595    9.7322 C.3     1  UNL1        0.0000
      7 C           1.0008    7.4463    9.4737 C.3     1  UNL1        0.0000
      8 C           2.8526    5.1687    9.7212 C.3     1  UNL1        0.0000
      9 C           1.5263    5.3273   10.5001 C.3     1  UNL1        0.0000
     10 C           0.0726    6.8769   11.6128 C.3     1  UNL1        0.0000
     11 C           3.9714   11.5770   10.6912 C.3     1  UNL1        0.0000
     12 C           0.9300   12.0315   10.5098 C.3     1  UNL1        0.0000
     13 C           2.1693   11.0965   13.1501 C.3     1  UNL1        0.0000
     14 C           4.7827    8.6076    8.5780 C.3     1  UNL1        0.0000
     15 C           6.7277    6.3650    9.5804 C.3     1  UNL1        0.0000
     16 C           4.8795    5.8174    7.1669 C.3     1  UNL1        0.0000
     17 H           0.0395    9.3151   10.0215 H       1  UNL1        0.0000
     18 H           1.2809    9.4628    8.7766 H       1  UNL1        0.0000
     19 H           0.0399    7.1555    9.0091 H       1  UNL1        0.0000
     20 H           1.8166    7.1907    8.7920 H       1  UNL1        0.0000
     21 H           3.3173    4.2158   10.0397 H       1  UNL1        0.0000
     22 H           2.6221    5.0389    8.6493 H       1  UNL1        0.0000
     23 H           1.6151    4.8427   11.4798 H       1  UNL1        0.0000
     24 H           0.7081    4.8255    9.9508 H       1  UNL1        0.0000
     25 H           0.2410    6.3208   12.5387 H       1  UNL1        0.0000
     26 H          -0.0660    7.9303   11.8620 H       1  UNL1        0.0000
     27 H          -0.8498    6.4972   11.1433 H       1  UNL1        0.0000
     28 H           4.7587   10.8989   11.0062 H       1  UNL1        0.0000
     29 H           4.1633   12.5459   11.1415 H       1  UNL1        0.0000
     30 H           4.0421   11.6941    9.6133 H       1  UNL1        0.0000
     31 H          -0.0649   11.7547   10.8445 H       1  UNL1        0.0000
     32 H           1.0978   13.0605   10.8070 H       1  UNL1        0.0000
     33 H           0.9315   12.0000    9.4252 H       1  UNL1        0.0000
     34 H           1.2249   10.7569   13.5689 H       1  UNL1        0.0000
     35 H           2.2767   12.1452   13.4085 H       1  UNL1        0.0000
     36 H           2.9771   10.5544   13.6292 H       1  UNL1        0.0000
     37 H           4.1414    8.8402    7.7298 H       1  UNL1        0.0000
     38 H           4.3306    9.0281    9.4850 H       1  UNL1        0.0000
     39 H           5.7359    9.0983    8.4079 H       1  UNL1        0.0000
     40 H           6.9121    5.3017    9.7043 H       1  UNL1        0.0000
     41 H           6.8214    6.8350   10.5548 H       1  UNL1        0.0000
     42 H           7.5103    6.7613    8.9415 H       1  UNL1        0.0000
     43 H           5.6786    6.1348    6.5065 H       1  UNL1        0.0000
     44 H           3.9396    6.0131    6.6586 H       1  UNL1        0.0000
     45 H           4.9678    4.7433    7.2940 H       1  UNL1        0.0000
@<TRIPOS>BOND
     1    43    16    1
     2    44    16    1
     3    16    45    1
     4    16     5    1
     5    37    14    1
     6    39    14    1
     7    14     5    1
     8    14    38    1
     9    22     8    1
    10    18     6    1
    11    20     7    1
    12     5    15    1
    13     5     2    1
    14    42    15    1
    15    19     7    1
    16    33    12    1
    17     7     6    1
    18     7     3    1
    19    15    40    1
    20    15    41    1
    21    30    11    1
    22     8     2    1
    23     8    21    1
    24     8     9    1
    25     6    17    1
    26     6     1    1
    27    24     9    1
    28     9     3    1
    29     9    23    1
    30    12    32    1
    31    12    31    1
    32    12     4    1
    33    11    28    1
    34    11    29    1
    35    11     4    1
    36     3    10    1
    37     1     4    1
    38    27    10    1
    39     4    13    1
    40    10    26    1
    41    10    25    1
    42    13    35    1
    43    13    34    1
    44    13    36    1
