@<TRIPOS>MOLECULE
1,2,4
 51 50 0 0 0
SMALL
GASTEIGER

@<TRIPOS>ATOM
      1 N          -0.6491   -1.4443    3.5936 N.3     1  UNL1       -0.2333
      2 N          -3.2220   -0.5397    4.5839 N.3     1  UNL1       -0.2987
      3 N          -3.2012    0.6871    1.8564 N.3     1  UNL1       -0.3071
      4 N          -2.6677    2.1995    5.6917 N.3     1  UNL1       -0.3071
      5 C           1.1672   -1.0994    2.0034 C.3     1  UNL1       -0.0458
      6 C           0.1309   -3.3495    2.1734 C.3     1  UNL1       -0.0458
      7 C           1.5866   -2.4886    4.0210 C.3     1  UNL1       -0.0458
      8 C           0.5100   -2.0887    2.9841 C.3     1  UNL1        0.0282
      9 C          -1.4816   -2.3574    4.3463 C.3     1  UNL1        0.0273
     10 C          -2.5146   -1.6480    5.2415 C.3     1  UNL1        0.0131
     11 C          -4.0116   -1.0434    3.4578 C.3     1  UNL1        0.0117
     12 C          -4.3675    0.0307    2.4302 C.3     1  UNL1        0.0111
     13 C          -2.4539   -0.2362    1.0110 C.3     1  UNL1       -0.0130
     14 C          -3.6296    1.8296    1.0632 C.3     1  UNL1       -0.0130
     15 C          -4.1034    0.1369    5.5366 C.3     1  UNL1        0.0117
     16 C          -3.4110    1.1732    6.4256 C.3     1  UNL1        0.0111
     17 C          -3.5582    3.0057    4.8617 C.3     1  UNL1       -0.0130
     18 C          -2.0145    3.0834    6.6560 C.3     1  UNL1       -0.0130
     19 H           0.4631   -0.8117    1.2250 H       1  UNL1        0.0248
     20 H           1.5019   -0.2021    2.5321 H       1  UNL1        0.0248
     21 H           2.0312   -1.5639    1.5309 H       1  UNL1        0.0248
     22 H          -0.6695   -3.1223    1.4721 H       1  UNL1        0.0248
     23 H          -0.1930   -4.1560    2.8257 H       1  UNL1        0.0248
     24 H           0.9930   -3.6987    1.6103 H       1  UNL1        0.0248
     25 H           1.8447   -1.6242    4.6312 H       1  UNL1        0.0248
     26 H           1.2263   -3.2786    4.6745 H       1  UNL1        0.0248
     27 H           2.4800   -2.8509    3.5170 H       1  UNL1        0.0248
     28 H          -2.0256   -3.0501    3.6720 H       1  UNL1        0.0454
     29 H          -0.8983   -3.0117    5.0228 H       1  UNL1        0.0454
     30 H          -3.2388   -2.4040    5.5978 H       1  UNL1        0.0440
     31 H          -1.9938   -1.2375    6.1128 H       1  UNL1        0.0440
     32 H          -3.4294   -1.8101    2.9551 H       1  UNL1        0.0439
     33 H          -4.9460   -1.5107    3.8132 H       1  UNL1        0.0439
     34 H          -4.9963    0.7983    2.8906 H       1  UNL1        0.0439
     35 H          -4.9786   -0.4527    1.6428 H       1  UNL1        0.0439
     36 H          -1.9540   -0.9745    1.6362 H       1  UNL1        0.0391
     37 H          -1.6945    0.3204    0.4649 H       1  UNL1        0.0391
     38 H          -3.1067   -0.7399    0.2790 H       1  UNL1        0.0391
     39 H          -4.2826    1.5333    0.2267 H       1  UNL1        0.0391
     40 H          -2.7549    2.3340    0.6592 H       1  UNL1        0.0391
     41 H          -4.1741    2.5375    1.6873 H       1  UNL1        0.0391
     42 H          -4.8962    0.6357    4.9775 H       1  UNL1        0.0439
     43 H          -4.5926   -0.5979    6.2005 H       1  UNL1        0.0439
     44 H          -2.7029    0.6714    7.0894 H       1  UNL1        0.0439
     45 H          -4.1921    1.6386    7.0555 H       1  UNL1        0.0439
     46 H          -2.9903    3.8276    4.4287 H       1  UNL1        0.0391
     47 H          -3.9538    2.4044    4.0493 H       1  UNL1        0.0391
     48 H          -4.3902    3.4253    5.4482 H       1  UNL1        0.0391
     49 H          -1.3410    2.5085    7.2870 H       1  UNL1        0.0391
     50 H          -1.4360    3.8340    6.1203 H       1  UNL1        0.0391
     51 H          -2.7509    3.5941    7.2948 H       1  UNL1        0.0391
@<TRIPOS>BOND
     1    39    14    1
     2    38    13    1
     3    37    13    1
     4    40    14    1
     5    13    36    1
     6    13     3    1
     7    14    41    1
     8    14     3    1
     9    19     5    1
    10    22     6    1
    11    21     5    1
    12    24     6    1
    13    35    12    1
    14     3    12    1
    15     5    20    1
    16     5     8    1
    17     6    23    1
    18     6     8    1
    19    12    34    1
    20    12    11    1
    21    32    11    1
    22     8     1    1
    23     8     7    1
    24    11    33    1
    25    11     2    1
    26    27     7    1
    27     1     9    1
    28    28     9    1
    29     7    25    1
    30     7    26    1
    31    47    17    1
    32     9    29    1
    33     9    10    1
    34    46    17    1
    35     2    10    1
    36     2    15    1
    37    17    48    1
    38    17     4    1
    39    42    15    1
    40    10    30    1
    41    10    31    1
    42    15    43    1
    43    15    16    1
    44     4    16    1
    45     4    18    1
    46    50    18    1
    47    16    45    1
    48    16    44    1
    49    18    49    1
    50    18    51    1
