@<TRIPOS>MOLECULE
1,2,3
 51 50 0 0 0
SMALL
GASTEIGER

@<TRIPOS>ATOM
      1 N          16.4236    0.9000   11.4221 N.3     1  UNL1        0.0000
      2 N          14.0111   -0.2343   12.6179 N.3     1  UNL1        0.0000
      3 N          13.0712    1.7663   10.6518 N.3     1  UNL1        0.0000
      4 SI         18.0538    1.2241   11.7959 Si      1  UNL1        0.0000
      5 SI         12.8376    1.5792    8.9738 Si      1  UNL1        0.0000
      6 C          16.1295   -0.0835   10.3963 C.3     1  UNL1        0.0000
      7 C          15.5645   -1.3875   10.9837 C.3     1  UNL1        0.0000
      8 C          14.1481   -1.2173   11.5312 C.3     1  UNL1        0.0000
      9 C          12.6102   -0.2221   13.0725 C.3     1  UNL1        0.0000
     10 C          11.5981    0.3017   12.0506 C.3     1  UNL1        0.0000
     11 C          11.9162    1.7168   11.5288 C.3     1  UNL1        0.0000
     12 C          19.0193    2.0864   10.3700 C.3     1  UNL1        0.0000
     13 C          18.0908    2.3429   13.3430 C.3     1  UNL1        0.0000
     14 C          19.0732   -0.3572   12.2136 C.3     1  UNL1        0.0000
     15 C          14.8700   -0.6348   13.7391 C.3     1  UNL1        0.0000
     16 C          12.6170   -0.2216    8.2892 C.3     1  UNL1        0.0000
     17 C          14.3435    2.2906    8.0247 C.3     1  UNL1        0.0000
     18 C          11.2592    2.4714    8.3363 C.3     1  UNL1        0.0000
     19 H          17.0292   -0.3435    9.8196 H       1  UNL1        0.0000
     20 H          15.3870    0.3147    9.6855 H       1  UNL1        0.0000
     21 H          16.2494   -1.7564   11.7488 H       1  UNL1        0.0000
     22 H          15.5177   -2.1406   10.1922 H       1  UNL1        0.0000
     23 H          13.7888   -2.2016   11.8856 H       1  UNL1        0.0000
     24 H          13.5116   -0.8896   10.7072 H       1  UNL1        0.0000
     25 H          12.5474    0.4165   13.9612 H       1  UNL1        0.0000
     26 H          12.3087   -1.2441   13.3686 H       1  UNL1        0.0000
     27 H          10.6258    0.3263   12.5495 H       1  UNL1        0.0000
     28 H          11.5116   -0.3718   11.1959 H       1  UNL1        0.0000
     29 H          12.0748    2.3820   12.3966 H       1  UNL1        0.0000
     30 H          11.0135    2.0761   11.0130 H       1  UNL1        0.0000
     31 H          20.0008    2.4230   10.6879 H       1  UNL1        0.0000
     32 H          18.4783    2.9508    9.9942 H       1  UNL1        0.0000
     33 H          19.1660    1.4082    9.5342 H       1  UNL1        0.0000
     34 H          19.0944    2.7240   13.4957 H       1  UNL1        0.0000
     35 H          17.8153    1.8004   14.2418 H       1  UNL1        0.0000
     36 H          17.4239    3.1941   13.2391 H       1  UNL1        0.0000
     37 H          20.1197   -0.1207   12.3743 H       1  UNL1        0.0000
     38 H          18.7118   -0.8533   13.1102 H       1  UNL1        0.0000
     39 H          19.0255   -1.0756   11.4007 H       1  UNL1        0.0000
     40 H          14.6112   -0.0617   14.6278 H       1  UNL1        0.0000
     41 H          15.9132   -0.4357   13.4820 H       1  UNL1        0.0000
     42 H          14.7418   -1.7029   13.9720 H       1  UNL1        0.0000
     43 H          12.3427   -0.1863    7.2391 H       1  UNL1        0.0000
     44 H          13.5267   -0.8127    8.3589 H       1  UNL1        0.0000
     45 H          11.8270   -0.7662    8.8007 H       1  UNL1        0.0000
     46 H          14.4088    1.8269    7.0459 H       1  UNL1        0.0000
     47 H          15.2873    2.1123    8.5368 H       1  UNL1        0.0000
     48 H          14.2431    3.3592    7.8634 H       1  UNL1        0.0000
     49 H          11.2850    2.5917    7.2583 H       1  UNL1        0.0000
     50 H          11.1465    3.4593    8.7725 H       1  UNL1        0.0000
     51 H          10.3648    1.9042    8.5760 H       1  UNL1        0.0000
@<TRIPOS>BOND
     1    46    17    1
     2    43    16    1
     3    49    18    1
     4    48    17    1
     5    17    47    1
     6    17     5    1
     7    16    44    1
     8    16    45    1
     9    16     5    1
    10    18    51    1
    11    18    50    1
    12    18     5    1
    13     5     3    1
    14    33    12    1
    15    20     6    1
    16    19     6    1
    17    32    12    1
    18    22     7    1
    19    12    31    1
    20    12     4    1
    21     6     7    1
    22     6     1    1
    23     3    11    1
    24    24     8    1
    25     7     8    1
    26     7    21    1
    27    30    11    1
    28    28    10    1
    29    39    14    1
    30     1     4    1
    31    11    10    1
    32    11    29    1
    33     8    23    1
    34     8     2    1
    35     4    14    1
    36     4    13    1
    37    10    27    1
    38    10     9    1
    39    14    37    1
    40    14    38    1
    41     2     9    1
    42     2    15    1
    43     9    26    1
    44     9    25    1
    45    36    13    1
    46    13    34    1
    47    13    35    1
    48    41    15    1
    49    15    42    1
    50    15    40    1
