@<TRIPOS>MOLECULE
1,3,5
 41 44 0 0 0
SMALL
GASTEIGER

@<TRIPOS>ATOM
      1 N           4.9972    1.8902    0.1392 N.ar    1  UNL1       -0.1614
      2 N           2.8552    0.8698   -0.0731 N.2     1  UNL1       -0.0166
      3 N           3.0449    2.0275    2.0092 N.pl3   1  UNL1       -0.0124
      4 N           7.1981    2.6408   -0.4051 N.2     1  UNL1       -0.0166
      5 N           6.7183    2.9262    1.9157 N.pl3   1  UNL1       -0.0124
      6 C           6.0551    2.0842   -0.6906 C.ar    1  UNL1        0.2792
      7 C           5.7407    1.5390   -2.0049 C.ar    1  UNL1        0.0584
      8 C           4.4459    1.0027   -1.9059 C.ar    1  UNL1        0.0584
      9 C           4.0061    1.2583   -0.5398 C.ar    1  UNL1        0.2792
     10 C           6.4487    1.4768   -3.1904 C.ar    1  UNL1       -0.0481
     11 H           7.4417    1.8918   -3.2582 H       1  UNL1        0.0626
     12 C           5.8354    0.8710   -4.2770 C.ar    1  UNL1       -0.0610
     13 H           6.3601    0.8106   -5.2197 H       1  UNL1        0.0618
     14 C           4.5550    0.3375   -4.1780 C.ar    1  UNL1       -0.0610
     15 H           4.1092   -0.1280   -5.0453 H       1  UNL1        0.0618
     16 C           3.8417    0.3943   -2.9898 C.ar    1  UNL1       -0.0481
     17 H           2.8478   -0.0159   -2.9054 H       1  UNL1        0.0626
     18 C           2.4175    1.1604    1.1581 C.2     1  UNL1        0.3589
     19 C           1.2091    0.5215    1.5206 C.2     1  UNL1        0.0334
     20 H           0.7855   -0.1618    0.8037 H       1  UNL1        0.0700
     21 C           0.6175    0.7894    2.7214 C.2     1  UNL1       -0.0504
     22 H          -0.3046    0.3126    3.0161 H       1  UNL1        0.0621
     23 C           1.2276    1.7345    3.5531 C.2     1  UNL1       -0.0172
     24 H           0.7752    2.0155    4.4915 H       1  UNL1        0.0656
     25 C           2.4041    2.3285    3.1627 C.2     1  UNL1        0.1407
     26 C           3.0207    3.3773    4.0464 C.3     1  UNL1       -0.0002
     27 H           3.4611    2.9243    4.9342 H       1  UNL1        0.0313
     28 H           2.2523    4.0725    4.3784 H       1  UNL1        0.0313
     29 H           3.7765    3.9340    3.4920 H       1  UNL1        0.0313
     30 C           7.5427    3.0235    0.8319 C.2     1  UNL1        0.3589
     31 C           8.8653    3.5030    0.9647 C.2     1  UNL1        0.0334
     32 H           9.4482    3.5864    0.0630 H       1  UNL1        0.0700
     33 C           9.3649    3.8175    2.1966 C.2     1  UNL1       -0.0504
     34 H          10.3706    4.1890    2.3189 H       1  UNL1        0.0621
     35 C           8.5451    3.6099    3.3114 C.2     1  UNL1       -0.0172
     36 H           8.9150    3.7904    4.3087 H       1  UNL1        0.0656
     37 C           7.2561    3.1678    3.1305 C.2     1  UNL1        0.1407
     38 C           6.3762    2.9072    4.3226 C.3     1  UNL1       -0.0002
     39 H           5.8471    3.8148    4.6117 H       1  UNL1        0.0313
     40 H           6.9798    2.5870    5.1685 H       1  UNL1        0.0313
     41 H           5.6502    2.1196    4.0900 H       1  UNL1        0.0313
@<TRIPOS>BOND
     1    13    12    1
     2    15    14    1
     3    12    14   ar
     4    12    10   ar
     5    14    16   ar
     6    11    10    1
     7    10     7   ar
     8    16    17    1
     9    16     8   ar
    10     7     8   ar
    11     7     6   ar
    12     8     9   ar
    13     6     4    1
    14     6     1   ar
    15     9     2    1
    16     9     1   ar
    17     4    30    2
    18     2    18    2
    19    32    31    1
    20    20    19    1
    21    30    31    1
    22    30     5    1
    23    31    33    2
    24    18    19    1
    25    18     3    1
    26    19    21    2
    27     5    37    1
    28     3    25    1
    29    33    34    1
    30    33    35    1
    31    21    22    1
    32    21    23    1
    33    37    35    2
    34    37    38    1
    35    25    23    2
    36    25    26    1
    37    35    36    1
    38    29    26    1
    39    23    24    1
    40    26    28    1
    41    26    27    1
    42    41    38    1
    43    38    39    1
    44    38    40    1
