@<TRIPOS>MOLECULE
3,6,7
 55 56 0 0 0
SMALL
GASTEIGER

@<TRIPOS>ATOM
      1 SI          1.3839    4.3232    1.1964 Si      1  UNL1        0.0000
      2 SI          1.4707   -2.2699    5.3423 Si      1  UNL1        0.0000
      3 N           0.3150    2.6582    3.1431 N.pl3   1  UNL1        0.0000
      4 N           0.9043    2.7524    1.8916 N.3     1  UNL1        0.0000
      5 N           1.6073    1.7589    1.4303 N.3     1  UNL1        0.0000
      6 N           1.5751    0.7004    2.1891 N.pl3   1  UNL1        0.0000
      7 N           1.4856   -1.2156    3.9793 N.pl3   1  UNL1        0.0000
      8 C          -0.9704    3.1728    3.1959 C.ar    1  UNL1        0.0000
      9 C          -1.4337    3.7387    4.3939 C.ar    1  UNL1        0.0000
     10 H          -0.7646    3.7909    5.2405 H       1  UNL1        0.0000
     11 C          -2.7180    4.2279    4.4832 C.ar    1  UNL1        0.0000
     12 H          -3.0618    4.6418    5.4199 H       1  UNL1        0.0000
     13 C          -3.5788    4.2124    3.3881 C.ar    1  UNL1        0.0000
     14 C          -3.1066    3.6934    2.1903 C.ar    1  UNL1        0.0000
     15 H          -3.7516    3.6809    1.3222 H       1  UNL1        0.0000
     16 C          -1.8277    3.1797    2.0870 C.ar    1  UNL1        0.0000
     17 H          -1.4855    2.7698    1.1442 H       1  UNL1        0.0000
     18 C          -4.9766    4.7394    3.5158 C.3     1  UNL1        0.0000
     19 H          -4.9690    5.7569    3.9042 H       1  UNL1        0.0000
     20 H          -5.5474    4.1239    4.2106 H       1  UNL1        0.0000
     21 H          -5.4845    4.7366    2.5545 H       1  UNL1        0.0000
     22 C           2.2688   -0.4418    1.8490 C.ar    1  UNL1        0.0000
     23 C           2.9835   -0.6156    0.6662 C.ar    1  UNL1        0.0000
     24 H           2.9997    0.1925   -0.0507 H       1  UNL1        0.0000
     25 C           3.6488   -1.8013    0.4304 C.ar    1  UNL1        0.0000
     26 H           4.2032   -1.9422   -0.4848 H       1  UNL1        0.0000
     27 C           3.5968   -2.8122    1.3828 C.ar    1  UNL1        0.0000
     28 H           4.1152   -3.7428    1.2015 H       1  UNL1        0.0000
     29 C           2.8947   -2.6511    2.5596 C.ar    1  UNL1        0.0000
     30 H           2.8684   -3.4509    3.2814 H       1  UNL1        0.0000
     31 C           2.2034   -1.4639    2.8444 C.ar    1  UNL1        0.0000
     32 C           0.3257    5.7163    1.9378 C.3     1  UNL1        0.0000
     33 H          -0.7041    5.6750    1.5977 H       1  UNL1        0.0000
     34 H           0.7304    6.6815    1.6495 H       1  UNL1        0.0000
     35 H           0.3066    5.6748    3.0228 H       1  UNL1        0.0000
     36 C           3.2175    4.5535    1.6742 C.3     1  UNL1        0.0000
     37 H           3.3431    4.6185    2.7525 H       1  UNL1        0.0000
     38 H           3.6293    5.4591    1.2408 H       1  UNL1        0.0000
     39 H           3.8166    3.7178    1.3227 H       1  UNL1        0.0000
     40 C           1.1465    4.1211   -0.6802 C.3     1  UNL1        0.0000
     41 H           0.0958    4.0847   -0.9532 H       1  UNL1        0.0000
     42 H           1.6127    3.2075   -1.0356 H       1  UNL1        0.0000
     43 H           1.5933    4.9524   -1.2146 H       1  UNL1        0.0000
     44 C           3.2100   -2.4145    6.1580 C.3     1  UNL1        0.0000
     45 H           3.5492   -1.4493    6.5263 H       1  UNL1        0.0000
     46 H           3.9572   -2.7761    5.4580 H       1  UNL1        0.0000
     47 H           3.1922   -3.0988    7.0002 H       1  UNL1        0.0000
     48 C           0.8274   -4.0478    4.9636 C.3     1  UNL1        0.0000
     49 H           0.3435   -4.0994    3.9919 H       1  UNL1        0.0000
     50 H           0.1065   -4.3714    5.7077 H       1  UNL1        0.0000
     51 H           1.6344   -4.7740    4.9625 H       1  UNL1        0.0000
     52 C           0.3076   -1.4864    6.6288 C.3     1  UNL1        0.0000
     53 H           0.7252   -0.5652    7.0286 H       1  UNL1        0.0000
     54 H           0.1578   -2.1637    7.4639 H       1  UNL1        0.0000
     55 H          -0.6702   -1.2639    6.2077 H       1  UNL1        0.0000
@<TRIPOS>BOND
     1    43    40    1
     2    42    40    1
     3    41    40    1
     4    40     1    1
     5    26    25    1
     6    24    23    1
     7    25    23   ar
     8    25    27   ar
     9    23    22   ar
    10    17    16    1
    11     1    36    1
    12     1     4    1
    13     1    32    1
    14    28    27    1
    15    38    36    1
    16    15    14    1
    17    39    36    1
    18    27    29   ar
    19     5     4    1
    20     5     6    1
    21    33    32    1
    22    34    32    1
    23    36    37    1
    24    22     6    1
    25    22    31   ar
    26     4     3    1
    27    32    35    1
    28    16    14   ar
    29    16     8   ar
    30    14    13   ar
    31    21    18    1
    32    29    31   ar
    33    29    30    1
    34    31     7    1
    35     3     8    1
    36     8     9   ar
    37    13    18    1
    38    13    11   ar
    39    18    19    1
    40    18    20    1
    41     7     2    1
    42    49    48    1
    43     9    11   ar
    44     9    10    1
    45    11    12    1
    46    51    48    1
    47    48     2    1
    48    48    50    1
    49     2    44    1
    50     2    52    1
    51    46    44    1
    52    44    45    1
    53    44    47    1
    54    55    52    1
    55    52    53    1
    56    52    54    1
