@<TRIPOS>MOLECULE
10,18,26
 59 61 0 0 0
SMALL
GASTEIGER

@<TRIPOS>ATOM
      1 C           1.9151   15.3347    0.7432 C.3     1  UNL1        0.1117
      2 C           1.2516   14.2273   -0.0740 C.3     1  UNL1       -0.0471
      3 C           1.7360   15.1121    2.2199 C.3     1  UNL1        0.1942
      4 O           1.4545   13.8647    2.6216 O.3     1  UNL1       -0.3508
      5 C           1.3825   13.9102    4.0475 C.3     1  UNL1        0.0674
      6 C           1.4830   15.4168    4.3846 C.3     1  UNL1        0.0542
      7 C           0.1800   16.0502    4.9136 C.3     1  UNL1       -0.0275
      8 C          -0.9879   15.8747    3.9447 C.3     1  UNL1       -0.0611
      9 C          -0.1621   15.5016    6.2961 C.3     1  UNL1       -0.0611
     10 N           1.8392   16.0154    3.1022 N.3     1  UNL1       -0.1972
     11 C           1.3317   16.6825    0.4189 C.3     1  UNL1        0.1942
     12 O           0.1099   16.7036   -0.1324 O.3     1  UNL1       -0.3508
     13 C          -0.2324   18.0811   -0.2935 C.3     1  UNL1        0.0674
     14 C           1.0622   18.8404    0.0819 C.3     1  UNL1        0.0542
     15 C           1.7809   19.5196   -1.1018 C.3     1  UNL1       -0.0275
     16 C           2.1336   18.5326   -2.2130 C.3     1  UNL1       -0.0611
     17 C           0.9514   20.6825   -1.6391 C.3     1  UNL1       -0.0611
     18 N           1.9080   17.7891    0.6379 N.3     1  UNL1       -0.1972
     19 C           3.3935   15.4045    0.4755 C.3     1  UNL1        0.1942
     20 O           3.8345   14.8636   -0.6690 O.3     1  UNL1       -0.3508
     21 C           5.2437   15.0951   -0.7042 C.3     1  UNL1        0.0674
     22 C           5.5652   15.6917    0.6866 C.3     1  UNL1        0.0542
     23 C           6.3660   14.7616    1.6208 C.3     1  UNL1       -0.0275
     24 C           7.7841   14.5602    1.0940 C.3     1  UNL1       -0.0611
     25 C           5.6660   13.4233    1.8495 C.3     1  UNL1       -0.0611
     26 N           4.2418   15.9386    1.2501 N.3     1  UNL1       -0.1972
     27 H           1.6801   13.2649    0.1922 H       1  UNL1        0.0239
     28 H           0.1840   14.2088    0.1276 H       1  UNL1        0.0239
     29 H           1.4100   14.4056   -1.1341 H       1  UNL1        0.0239
     30 H           2.2194   13.3345    4.4532 H       1  UNL1        0.0577
     31 H           0.4445   13.4495    4.3586 H       1  UNL1        0.0577
     32 H           2.2826   15.6235    5.0992 H       1  UNL1        0.0503
     33 H           0.3851   17.1207    5.0040 H       1  UNL1        0.0312
     34 H          -1.8592   16.4051    4.3210 H       1  UNL1        0.0233
     35 H          -0.7359   16.2829    2.9677 H       1  UNL1        0.0233
     36 H          -1.2585   14.8273    3.8247 H       1  UNL1        0.0233
     37 H          -1.0404   16.0088    6.6873 H       1  UNL1        0.0233
     38 H          -0.3755   14.4353    6.2596 H       1  UNL1        0.0233
     39 H           0.6615   15.6648    6.9853 H       1  UNL1        0.0233
     40 H          -1.0622   18.3111    0.3809 H       1  UNL1        0.0577
     41 H          -0.5527   18.2368   -1.3242 H       1  UNL1        0.0577
     42 H           0.8863   19.5905    0.8558 H       1  UNL1        0.0503
     43 H           2.7151   19.9163   -0.6943 H       1  UNL1        0.0312
     44 H           2.7094   19.0390   -2.9837 H       1  UNL1        0.0233
     45 H           2.7354   17.7157   -1.8191 H       1  UNL1        0.0233
     46 H           1.2430   18.1151   -2.6793 H       1  UNL1        0.0233
     47 H           1.5005   21.1956   -2.4245 H       1  UNL1        0.0233
     48 H           0.0070   20.3386   -2.0558 H       1  UNL1        0.0233
     49 H           0.7393   21.3968   -0.8486 H       1  UNL1        0.0233
     50 H           5.4581   15.7933   -1.5183 H       1  UNL1        0.0577
     51 H           5.7424   14.1460   -0.9035 H       1  UNL1        0.0577
     52 H           6.0941   16.6441    0.6105 H       1  UNL1        0.0503
     53 H           6.4215   15.2813    2.5815 H       1  UNL1        0.0312
     54 H           8.3588   13.9660    1.7998 H       1  UNL1        0.0233
     55 H           7.7834   14.0418    0.1374 H       1  UNL1        0.0233
     56 H           8.2832   15.5167    0.9674 H       1  UNL1        0.0233
     57 H           6.2248   12.8365    2.5745 H       1  UNL1        0.0233
     58 H           4.6622   13.5810    2.2397 H       1  UNL1        0.0233
     59 H           5.5951   12.8431    0.9312 H       1  UNL1        0.0233
@<TRIPOS>BOND
     1    44    16    1
     2    46    16    1
     3    47    17    1
     4    16    45    1
     5    16    15    1
     6    48    17    1
     7    17    15    1
     8    17    49    1
     9    50    21    1
    10    41    13    1
    11    29     2    1
    12    15    43    1
    13    15    14    1
    14    51    21    1
    15    21    20    1
    16    21    22    1
    17    20    19    1
    18    13    12    1
    19    13    14    1
    20    13    40    1
    21    12    11    1
    22     2    28    1
    23     2    27    1
    24     2     1    1
    25    14    18    1
    26    14    42    1
    27    55    24    1
    28    11    18    1
    29    11     1    1
    30    19     1    1
    31    19    26    1
    32    52    22    1
    33    22    26    1
    34    22    23    1
    35     1     3    1
    36    59    25    1
    37    56    24    1
    38    24    23    1
    39    24    54    1
    40    23    25    1
    41    23    53    1
    42    25    58    1
    43    25    57    1
    44     3     4    1
    45     3    10    1
    46     4     5    1
    47    35     8    1
    48    10     6    1
    49    36     8    1
    50     8    34    1
    51     8     7    1
    52     5    31    1
    53     5     6    1
    54     5    30    1
    55     6     7    1
    56     6    32    1
    57     7    33    1
    58     7     9    1
    59    38     9    1
    60     9    37    1
    61     9    39    1
