@<TRIPOS>MOLECULE
4,5,50
 89 93 0 0 0
SMALL
GASTEIGER

@<TRIPOS>ATOM
      1 SI          8.0212    7.1668    3.7732 Si      1  UNL1        0.0000
      2 O           9.1647    7.9631    4.6668 O.3     1  UNL1        0.0000
      3 N          10.4149    8.4493    6.5803 N.pl3   1  UNL1        0.0000
      4 N          11.0983    7.8154    7.5536 N.pl3   1  UNL1        0.0000
      5 N          12.5006    6.3234    9.0687 N.pl3   1  UNL1        0.0000
      6 C           9.9061    7.5453    5.6882 C.3     1  UNL1        0.0000
      7 C          10.2652    6.2906    6.1059 C.2     1  UNL1        0.0000
      8 C          11.0257    6.4989    7.2767 C.2     1  UNL1        0.0000
      9 C          11.7004    5.6328    8.1925 C.3     1  UNL1        0.0000
     10 C          11.5328    4.2594    8.2685 C.2     1  UNL1        0.0000
     11 C          12.1374    3.5499    9.2964 C.2     1  UNL1        0.0000
     12 C          10.2006    9.8354    6.5954 C.ar    1  UNL1        0.0000
     13 C          10.1877   10.5598    5.4092 C.ar    1  UNL1        0.0000
     14 C           9.9490   11.9217    5.4441 C.ar    1  UNL1        0.0000
     15 C           9.7369   12.5642    6.6520 C.ar    1  UNL1        0.0000
     16 C           9.7626   11.8403    7.8334 C.ar    1  UNL1        0.0000
     17 C           9.9885   10.4779    7.8106 C.ar    1  UNL1        0.0000
     18 C           6.7493    6.3550    4.9375 C.3     1  UNL1        0.0000
     19 C           8.8396    5.8374    2.6772 C.3     1  UNL1        0.0000
     20 C           7.2856    8.6109    2.7461 C.3     1  UNL1        0.0000
     21 C           8.3346    9.1799    1.7878 C.3     1  UNL1        0.0000
     22 C           6.1014    8.1010    1.9246 C.3     1  UNL1        0.0000
     23 C           6.7983    9.7378    3.6610 C.3     1  UNL1        0.0000
     24 H          10.0325    5.3647    5.6254 H       1  UNL1        0.0000
     25 H          10.9178    3.7610    7.5358 H       1  UNL1        0.0000
     26 H          12.0315    2.4787    9.3636 H       1  UNL1        0.0000
     27 H          10.3740   10.0597    4.4724 H       1  UNL1        0.0000
     28 H           9.9395   12.4844    4.5224 H       1  UNL1        0.0000
     29 H           9.5591   13.6288    6.6736 H       1  UNL1        0.0000
     30 H           9.6059   12.3392    8.7776 H       1  UNL1        0.0000
     31 H          10.0168    9.9012    8.7231 H       1  UNL1        0.0000
     32 H           6.0077    5.7807    4.3929 H       1  UNL1        0.0000
     33 H           6.2228    7.0977    5.5303 H       1  UNL1        0.0000
     34 H           7.2419    5.6801    5.6320 H       1  UNL1        0.0000
     35 H           8.1938    5.5384    1.8581 H       1  UNL1        0.0000
     36 H           9.7694    6.2009    2.2487 H       1  UNL1        0.0000
     37 H           9.0726    4.9411    3.2448 H       1  UNL1        0.0000
     38 H           7.9173   10.0113    1.2203 H       1  UNL1        0.0000
     39 H           9.1987    9.5436    2.3373 H       1  UNL1        0.0000
     40 H           8.6682    8.4217    1.0833 H       1  UNL1        0.0000
     41 H           5.6767    8.9081    1.3289 H       1  UNL1        0.0000
     42 H           5.3206    7.7102    2.5722 H       1  UNL1        0.0000
     43 H           6.4108    7.3082    1.2480 H       1  UNL1        0.0000
     44 H           6.4050   10.5623    3.0670 H       1  UNL1        0.0000
     45 H           7.6117   10.1165    4.2751 H       1  UNL1        0.0000
     46 H           6.0058    9.3880    4.3187 H       1  UNL1        0.0000
     47 SI         16.4942    7.1790   14.7304 Si      1  UNL1        0.0000
     48 O          15.1983    7.8472   13.9459 O.3     1  UNL1        0.0000
     49 N          14.0571    8.3941   11.9927 N.pl3   1  UNL1        0.0000
     50 N          13.4573    7.8060   10.9385 N.pl3   1  UNL1        0.0000
     51 C          14.5498    7.4555   12.8538 C.3     1  UNL1        0.0000
     52 C          14.2648    6.2187   12.3384 C.2     1  UNL1        0.0000
     53 C          13.5757    6.4784   11.1338 C.2     1  UNL1        0.0000
     54 C          12.9817    5.6282   10.1475 C.2     1  UNL1        0.0000
     55 C          12.8311    4.2564   10.2700 C.2     1  UNL1        0.0000
     56 C          14.2262    9.7819   12.1270 C.ar    1  UNL1        0.0000
     57 C          13.9281   10.4014   13.3353 C.ar    1  UNL1        0.0000
     58 C          14.1391   11.7611   13.4734 C.ar    1  UNL1        0.0000
     59 C          14.6317   12.5019   12.4114 C.ar    1  UNL1        0.0000
     60 C          14.9245   11.8799   11.2084 C.ar    1  UNL1        0.0000
     61 C          14.7334   10.5185   11.0640 C.ar    1  UNL1        0.0000
     62 C          17.7767    6.5763   13.4584 C.3     1  UNL1        0.0000
     63 C          15.9104    5.7186   15.8092 C.3     1  UNL1        0.0000
     64 C          17.1016    8.6730   15.7708 C.3     1  UNL1        0.0000
     65 C          16.0080    9.1369   16.7357 C.3     1  UNL1        0.0000
     66 C          18.3323    8.2696   16.5830 C.3     1  UNL1        0.0000
     67 C          17.4762    9.8472   14.8620 C.3     1  UNL1        0.0000
     68 H          14.5197    5.2719   12.7640 H       1  UNL1        0.0000
     69 H          13.2464    3.7531   11.1288 H       1  UNL1        0.0000
     70 H          13.5340    9.8182   14.1532 H       1  UNL1        0.0000
     71 H          13.9126   12.2445   14.4123 H       1  UNL1        0.0000
     72 H          14.7890   13.5641   12.5230 H       1  UNL1        0.0000
     73 H          15.3097   12.4542   10.3801 H       1  UNL1        0.0000
     74 H          14.9748   10.0107   10.1419 H       1  UNL1        0.0000
     75 H          18.6511    6.1431   13.9318 H       1  UNL1        0.0000
     76 H          18.1128    7.3891   12.8208 H       1  UNL1        0.0000
     77 H          17.3454    5.8179   12.8108 H       1  UNL1        0.0000
     78 H          16.6825    5.3967   16.5000 H       1  UNL1        0.0000
     79 H          15.0346    5.9855   16.3940 H       1  UNL1        0.0000
     80 H          15.6440    4.8592   15.2005 H       1  UNL1        0.0000
     81 H          16.3490    9.9995   17.3075 H       1  UNL1        0.0000
     82 H          15.1144    9.4227   16.1876 H       1  UNL1        0.0000
     83 H          15.7476    8.3468   17.4361 H       1  UNL1        0.0000
     84 H          18.6870    9.1102   17.1782 H       1  UNL1        0.0000
     85 H          19.1406    7.9522   15.9291 H       1  UNL1        0.0000
     86 H          18.0992    7.4507   17.2591 H       1  UNL1        0.0000
     87 H          17.7948   10.7004   15.4602 H       1  UNL1        0.0000
     88 H          16.6262   10.1544   14.2572 H       1  UNL1        0.0000
     89 H          18.2931    9.5783   14.1964 H       1  UNL1        0.0000
@<TRIPOS>BOND
     1    40    21    1
     2    38    21    1
     3    43    22    1
     4    41    22    1
     5    21    39    1
     6    21    20    1
     7    35    19    1
     8    22    42    1
     9    22    20    1
    10    36    19    1
    11    19    37    1
    12    19     1    1
    13    20    23    1
    14    20     1    1
    15    44    23    1
    16    23    45    1
    17    23    46    1
    18     1     2    1
    19     1    18    1
    20    32    18    1
    21    27    13    1
    22    28    14    1
    23     2     6    1
    24    18    33    1
    25    18    34    1
    26    13    14   ar
    27    13    12   ar
    28    14    15   ar
    29    24     7    1
    30     6     7    1
    31     6     3    1
    32     7     8    2
    33     3    12    1
    34     3     4    1
    35    12    17   ar
    36    15    29    1
    37    15    16   ar
    38     8     4    1
    39     8     9    1
    40    25    10    1
    41    17    16   ar
    42    17    31    1
    43    16    30    1
    44     9    10    1
    45     9     5    1
    46    10    11    2
    47     5    54    1
    48    11    26    1
    49    11    55    1
    50    74    61    1
    51    54    55    2
    52    54    53    1
    53    55    69    1
    54    73    60    1
    55    50    53    1
    56    50    49    1
    57    61    60   ar
    58    61    56   ar
    59    53    52    2
    60    60    59   ar
    61    49    56    1
    62    49    51    1
    63    56    57   ar
    64    52    68    1
    65    52    51    1
    66    59    72    1
    67    59    58   ar
    68    77    62    1
    69    76    62    1
    70    51    48    1
    71    57    58   ar
    72    57    70    1
    73    62    75    1
    74    62    47    1
    75    58    71    1
    76    48    47    1
    77    89    67    1
    78    88    67    1
    79    47    64    1
    80    47    63    1
    81    67    87    1
    82    67    64    1
    83    80    63    1
    84    64    66    1
    85    64    65    1
    86    63    79    1
    87    63    78    1
    88    85    66    1
    89    82    65    1
    90    66    84    1
    91    66    86    1
    92    65    81    1
    93    65    83    1
