@<TRIPOS>MOLECULE
4,5,41
 71 75 0 0 0
SMALL
GASTEIGER

@<TRIPOS>ATOM
      1 SI          0.9370   12.0099    3.5071 Si      1  UNL1        0.0000
      2 O           2.4463   12.7015    3.5538 O.3     1  UNL1        0.0000
      3 N           4.7086   13.0607    3.0868 N.pl3   1  UNL1        0.0000
      4 N           5.8033   12.3488    2.7807 N.pl3   1  UNL1        0.0000
      5 N           7.7068   10.8202    2.4060 N.pl3   1  UNL1        0.0000
      6 C           3.6478   12.2196    3.2759 C.3     1  UNL1        0.0000
      7 C           4.0898   10.9308    3.0934 C.2     1  UNL1        0.0000
      8 C           5.4592   11.0541    2.7977 C.2     1  UNL1        0.0000
      9 C           6.5497   10.1410    2.5852 C.3     1  UNL1        0.0000
     10 C           6.5205    8.7524    2.5863 C.2     1  UNL1        0.0000
     11 C           7.7067    8.0549    2.4058 C.2     1  UNL1        0.0000
     12 C           4.7637   14.4528    3.2568 C.ar    1  UNL1        0.0000
     13 C           5.7024   15.1933    2.5431 C.ar    1  UNL1        0.0000
     14 C           5.7749   16.5623    2.7207 C.ar    1  UNL1        0.0000
     15 C           4.9231   17.2015    3.6061 C.ar    1  UNL1        0.0000
     16 C           3.9949   16.4615    4.3191 C.ar    1  UNL1        0.0000
     17 C           3.9124   15.0913    4.1537 C.ar    1  UNL1        0.0000
     18 C           0.5699   11.3887    1.7454 C.3     1  UNL1        0.0000
     19 C           0.8047   10.5885    4.7710 C.3     1  UNL1        0.0000
     20 C          -0.1209   13.5033    4.0055 C.3     1  UNL1        0.0000
     21 H           3.5095   10.0368    3.1703 H       1  UNL1        0.0000
     22 H           5.5845    8.2374    2.7292 H       1  UNL1        0.0000
     23 H           7.7067    6.9761    2.4058 H       1  UNL1        0.0000
     24 H           6.3523   14.7043    1.8263 H       1  UNL1        0.0000
     25 H           6.4942   17.1312    2.1513 H       1  UNL1        0.0000
     26 H           4.9823   18.2710    3.7410 H       1  UNL1        0.0000
     27 H           3.3329   16.9520    5.0170 H       1  UNL1        0.0000
     28 H           3.1956   14.5208    4.7202 H       1  UNL1        0.0000
     29 H          -0.4139   10.9365    1.6750 H       1  UNL1        0.0000
     30 H           0.6073   12.2047    1.0287 H       1  UNL1        0.0000
     31 H           1.2965   10.6461    1.4260 H       1  UNL1        0.0000
     32 H          -0.2315   10.3601    4.9989 H       1  UNL1        0.0000
     33 H           1.2953   10.8484    5.7055 H       1  UNL1        0.0000
     34 H           1.2628    9.6728    4.4073 H       1  UNL1        0.0000
     35 H          -1.1765   13.2680    3.9268 H       1  UNL1        0.0000
     36 H           0.0766   14.3598    3.3683 H       1  UNL1        0.0000
     37 H           0.0714   13.8057    5.0303 H       1  UNL1        0.0000
     38 SI         14.4769   12.0099    1.3059 Si      1  UNL1        0.0000
     39 O          12.9675   12.7013    1.2588 O.3     1  UNL1        0.0000
     40 N          10.7052   13.0606    1.7256 N.pl3   1  UNL1        0.0000
     41 N           9.6104   12.3487    2.0315 N.pl3   1  UNL1        0.0000
     42 C          11.7660   12.2194    1.5365 C.3     1  UNL1        0.0000
     43 C          11.3238   10.9307    1.7187 C.2     1  UNL1        0.0000
     44 C           9.9545   11.0541    2.0144 C.2     1  UNL1        0.0000
     45 C           8.8638   10.1410    2.2267 C.2     1  UNL1        0.0000
     46 C           8.8930    8.7524    2.2255 C.2     1  UNL1        0.0000
     47 C          10.6501   14.4527    1.5558 C.ar    1  UNL1        0.0000
     48 C           9.7115   15.1931    2.2697 C.ar    1  UNL1        0.0000
     49 C           9.6389   16.5622    2.0920 C.ar    1  UNL1        0.0000
     50 C          10.4906   17.2014    1.2065 C.ar    1  UNL1        0.0000
     51 C          11.4187   16.4614    0.4933 C.ar    1  UNL1        0.0000
     52 C          11.5013   15.0913    0.6587 C.ar    1  UNL1        0.0000
     53 C          14.8437   11.3891    3.0678 C.3     1  UNL1        0.0000
     54 C          14.6097   10.5883    0.0424 C.3     1  UNL1        0.0000
     55 C          15.5346   13.5034    0.8075 C.3     1  UNL1        0.0000
     56 H          11.9041   10.0366    1.6417 H       1  UNL1        0.0000
     57 H           9.8290    8.2374    2.0825 H       1  UNL1        0.0000
     58 H           9.0619   14.7041    2.9866 H       1  UNL1        0.0000
     59 H           8.9199   17.1311    2.6617 H       1  UNL1        0.0000
     60 H          10.4313   18.2709    1.0716 H       1  UNL1        0.0000
     61 H          12.0805   16.9520   -0.2047 H       1  UNL1        0.0000
     62 H          12.2180   14.5207    0.0920 H       1  UNL1        0.0000
     63 H          15.8274   10.9367    3.1384 H       1  UNL1        0.0000
     64 H          14.8063   12.2052    3.7843 H       1  UNL1        0.0000
     65 H          14.1170   10.6466    3.3872 H       1  UNL1        0.0000
     66 H          15.6460   10.3602   -0.1855 H       1  UNL1        0.0000
     67 H          14.1190   10.8477   -0.8922 H       1  UNL1        0.0000
     68 H          14.1520    9.6725    0.4063 H       1  UNL1        0.0000
     69 H          16.5903   13.2683    0.8863 H       1  UNL1        0.0000
     70 H          15.3370   14.3600    1.4445 H       1  UNL1        0.0000
     71 H          15.3425   13.8056   -0.2174 H       1  UNL1        0.0000
@<TRIPOS>BOND
     1    67    54    1
     2    71    55    1
     3    61    51    1
     4    66    54    1
     5    54    68    1
     6    54    38    1
     7    62    52    1
     8    51    52   ar
     9    51    50   ar
    10    52    47   ar
    11    55    69    1
    12    55    38    1
    13    55    70    1
    14    30    18    1
    15    60    50    1
    16    50    49   ar
    17    39    38    1
    18    39    42    1
    19    38    53    1
    20    31    18    1
    21    42    43    1
    22    42    40    1
    23    47    40    1
    24    47    48   ar
    25    56    43    1
    26    29    18    1
    27    43    44    2
    28    40    41    1
    29    18     1    1
    30    24    13    1
    31    44    41    1
    32    44    45    1
    33    57    46    1
    34    49    48   ar
    35    49    59    1
    36    25    14    1
    37    46    45    2
    38    46    11    1
    39    45     5    1
    40    48    58    1
    41    23    11    1
    42    11    10    2
    43     5     9    1
    44    13    14   ar
    45    13    12   ar
    46     9    10    1
    47     9     8    1
    48    10    22    1
    49    14    15   ar
    50     4     8    1
    51     4     3    1
    52     8     7    2
    53    53    63    1
    54    53    65    1
    55    53    64    1
    56     3    12    1
    57     3     6    1
    58     7    21    1
    59     7     6    1
    60    12    17   ar
    61     6     2    1
    62    36    20    1
    63     1     2    1
    64     1    20    1
    65     1    19    1
    66    15    26    1
    67    15    16   ar
    68    35    20    1
    69    20    37    1
    70    17    16   ar
    71    17    28    1
    72    16    27    1
    73    34    19    1
    74    19    32    1
    75    19    33    1
