@<TRIPOS>MOLECULE
2,3,4
 64 64 0 0 0
SMALL
GASTEIGER

@<TRIPOS>ATOM
      1 SI          2.9195   13.7847    5.8415 Si      1  UNL1        0.0000
      2 N           3.8388   14.6520    4.7379 N.3     1  UNL1        0.0000
      3 N           1.4290   13.5292    4.8331 N.3     1  UNL1        0.0000
      4 N           0.7343   11.7978    2.4840 N.3     1  UNL1        0.0000
      5 N          -0.0099   14.7409    2.5238 N.3     1  UNL1        0.0000
      6 C           4.9365   15.5393    5.0762 C.3     1  UNL1        0.0000
      7 C           5.7556   15.0404    6.2744 C.3     1  UNL1        0.0000
      8 C           4.3837   16.9386    5.4075 C.3     1  UNL1        0.0000
      9 C           5.8858   15.6714    3.8718 C.3     1  UNL1        0.0000
     10 C           0.7202   12.2762    4.9958 C.3     1  UNL1        0.0000
     11 C           0.9294   11.2740    3.8440 C.3     1  UNL1        0.0000
     12 C           1.1437   10.7867    1.4849 C.3     1  UNL1        0.0000
     13 C           0.3440    9.4743    1.5135 C.3     1  UNL1        0.0000
     14 C           1.1198   11.3670    0.0697 C.3     1  UNL1        0.0000
     15 C          -0.6279   12.2898    2.2698 C.3     1  UNL1        0.0000
     16 C          -0.7134   13.7297    1.7340 C.3     1  UNL1        0.0000
     17 C          -0.0127   16.0411    1.8243 C.3     1  UNL1        0.0000
     18 C           0.8418   17.0647    2.5734 C.3     1  UNL1        0.0000
     19 C          -1.4040   16.6349    1.5483 C.3     1  UNL1        0.0000
     20 C          -0.5309   14.8327    3.8904 C.3     1  UNL1        0.0000
     21 C           0.5585   14.6812    4.9652 C.3     1  UNL1        0.0000
     22 C           2.3292   14.5576    7.5081 C.3     1  UNL1        0.0000
     23 C           3.5440   12.0576    6.4107 C.3     1  UNL1        0.0000
     24 H           5.1325   15.0035    7.1615 H       1  UNL1        0.0000
     25 H           6.6001   15.6996    6.4636 H       1  UNL1        0.0000
     26 H           6.1280   14.0400    6.0762 H       1  UNL1        0.0000
     27 H           3.7416   16.8799    6.2812 H       1  UNL1        0.0000
     28 H           3.7981   17.3123    4.5698 H       1  UNL1        0.0000
     29 H           5.1926   17.6365    5.6108 H       1  UNL1        0.0000
     30 H           6.7166   16.3300    4.1196 H       1  UNL1        0.0000
     31 H           5.3571   16.0895    3.0139 H       1  UNL1        0.0000
     32 H           6.2867   14.6950    3.6054 H       1  UNL1        0.0000
     33 H          -0.3505   12.4641    5.1261 H       1  UNL1        0.0000
     34 H           1.0433   11.7494    5.9001 H       1  UNL1        0.0000
     35 H           1.9595   10.9124    3.8965 H       1  UNL1        0.0000
     36 H           0.2539   10.4263    4.0438 H       1  UNL1        0.0000
     37 H           2.1832   10.5374    1.7262 H       1  UNL1        0.0000
     38 H           0.4812    8.9475    2.4536 H       1  UNL1        0.0000
     39 H           0.7016    8.8280    0.7164 H       1  UNL1        0.0000
     40 H          -0.7203    9.6372    1.3592 H       1  UNL1        0.0000
     41 H           1.6190   10.6789   -0.6083 H       1  UNL1        0.0000
     42 H           1.6464   12.3218    0.0359 H       1  UNL1        0.0000
     43 H           0.1029   11.5082   -0.2892 H       1  UNL1        0.0000
     44 H          -1.1620   11.6684    1.5432 H       1  UNL1        0.0000
     45 H          -1.1914   12.2150    3.2014 H       1  UNL1        0.0000
     46 H          -1.7909   13.9574    1.6592 H       1  UNL1        0.0000
     47 H          -0.2920   13.7570    0.7257 H       1  UNL1        0.0000
     48 H           0.4594   15.8560    0.8516 H       1  UNL1        0.0000
     49 H           0.3236   17.4524    3.4474 H       1  UNL1        0.0000
     50 H           1.0624   17.9012    1.9142 H       1  UNL1        0.0000
     51 H           1.7826   16.6102    2.8904 H       1  UNL1        0.0000
     52 H          -1.9838   16.7506    2.4609 H       1  UNL1        0.0000
     53 H          -1.9708   16.0197    0.8541 H       1  UNL1        0.0000
     54 H          -1.2844   17.6178    1.1006 H       1  UNL1        0.0000
     55 H          -1.3048   14.0774    4.0433 H       1  UNL1        0.0000
     56 H          -1.0149   15.7982    4.0675 H       1  UNL1        0.0000
     57 H           1.2015   15.5602    4.9417 H       1  UNL1        0.0000
     58 H           0.0389   14.6753    5.9378 H       1  UNL1        0.0000
     59 H           3.1118   14.5037    8.2589 H       1  UNL1        0.0000
     60 H           1.4631   14.0391    7.9131 H       1  UNL1        0.0000
     61 H           2.0601   15.6035    7.3978 H       1  UNL1        0.0000
     62 H           3.6611   11.3698    5.5803 H       1  UNL1        0.0000
     63 H           2.9004   11.5881    7.1495 H       1  UNL1        0.0000
     64 H           4.5204   12.1693    6.8693 H       1  UNL1        0.0000
@<TRIPOS>BOND
     1    41    14    1
     2    43    14    1
     3    42    14    1
     4    14    12    1
     5    39    13    1
     6    47    16    1
     7    48    17    1
     8    53    19    1
     9    54    19    1
    10    40    13    1
    11    12    13    1
    12    12    37    1
    13    12     4    1
    14    13    38    1
    15    44    15    1
    16    19    17    1
    17    19    52    1
    18    46    16    1
    19    16    15    1
    20    16     5    1
    21    17     5    1
    22    17    18    1
    23    50    18    1
    24    15     4    1
    25    15    45    1
    26     4    11    1
    27     5    20    1
    28    18    51    1
    29    18    49    1
    30    31     9    1
    31    32     9    1
    32    11    35    1
    33    11    36    1
    34    11    10    1
    35     9    30    1
    36     9     6    1
    37    20    55    1
    38    20    56    1
    39    20    21    1
    40    28     8    1
    41     2     6    1
    42     2     1    1
    43     3    21    1
    44     3    10    1
    45     3     1    1
    46    57    21    1
    47    21    58    1
    48    10    33    1
    49    10    34    1
    50     6     8    1
    51     6     7    1
    52     8    29    1
    53     8    27    1
    54    62    23    1
    55     1    23    1
    56     1    22    1
    57    26     7    1
    58     7    25    1
    59     7    24    1
    60    23    64    1
    61    23    63    1
    62    61    22    1
    63    22    60    1
    64    22    59    1
