@<TRIPOS>MOLECULE
3,4,5
 57 59 0 0 0
SMALL
GASTEIGER

@<TRIPOS>ATOM
      1 SI         13.6730    4.9902   13.8305 Si      1  UNL1        0.0000
      2 SI         13.9472    0.1866   11.1322 Si      1  UNL1        0.0000
      3 N          12.1016    4.3440   13.5172 N.pl3   1  UNL1        0.0000
      4 N          10.9539    2.5708   11.9034 N.pl3   1  UNL1        0.0000
      5 N          12.6383    1.1220   11.7586 N.3     1  UNL1        0.0000
      6 C          11.0086    5.1267   13.2407 C.ar    1  UNL1        0.0000
      7 C          10.8249    6.3311   13.9190 C.ar    1  UNL1        0.0000
      8 H          11.5370    6.5870   14.6892 H       1  UNL1        0.0000
      9 C           9.7871    7.2081   13.6276 C.ar    1  UNL1        0.0000
     10 H           9.7025    8.1293   14.1875 H       1  UNL1        0.0000
     11 C           8.8910    6.9164   12.6348 C.ar    1  UNL1        0.0000
     12 H           8.0950    7.6015   12.3840 H       1  UNL1        0.0000
     13 C           9.0012    5.7082   11.9193 C.ar    1  UNL1        0.0000
     14 C           8.0819    5.4154   10.8881 C.ar    1  UNL1        0.0000
     15 H           7.3102    6.1396   10.6701 H       1  UNL1        0.0000
     16 C           8.1608    4.2501   10.1806 C.ar    1  UNL1        0.0000
     17 H           7.4596    4.0373    9.3864 H       1  UNL1        0.0000
     18 C           9.1435    3.3114   10.4961 C.ar    1  UNL1        0.0000
     19 H           9.1867    2.3716    9.9641 H       1  UNL1        0.0000
     20 C          10.0593    3.5557   11.5017 C.ar    1  UNL1        0.0000
     21 C          10.0351    4.7811   12.2313 C.ar    1  UNL1        0.0000
     22 C          11.8119    1.9398   11.1238 C.3     1  UNL1        0.0000
     23 C          11.8915    2.2224    9.6732 C.ar    1  UNL1        0.0000
     24 C          12.2768    3.4918    9.2561 C.ar    1  UNL1        0.0000
     25 H          12.5060    4.2446    9.9971 H       1  UNL1        0.0000
     26 C          12.3686    3.7782    7.9066 C.ar    1  UNL1        0.0000
     27 H          12.6751    4.7629    7.5861 H       1  UNL1        0.0000
     28 C          12.0641    2.8072    6.9669 C.ar    1  UNL1        0.0000
     29 H          12.1328    3.0337    5.9130 H       1  UNL1        0.0000
     30 C          11.6663    1.5466    7.3795 C.ar    1  UNL1        0.0000
     31 H          11.4206    0.7903    6.6479 H       1  UNL1        0.0000
     32 C          11.5821    1.2526    8.7286 C.ar    1  UNL1        0.0000
     33 H          11.2649    0.2739    9.0576 H       1  UNL1        0.0000
     34 C          14.8618    3.6298   13.1809 C.3     1  UNL1        0.0000
     35 H          15.8642    4.0216   13.0340 H       1  UNL1        0.0000
     36 H          14.5246    3.2217   12.2267 H       1  UNL1        0.0000
     37 H          14.9460    2.8122   13.8965 H       1  UNL1        0.0000
     38 C          14.0938    5.2883   15.6822 C.3     1  UNL1        0.0000
     39 H          15.1338    5.5770   15.7959 H       1  UNL1        0.0000
     40 H          13.9432    4.3815   16.2620 H       1  UNL1        0.0000
     41 H          13.4887    6.0715   16.1294 H       1  UNL1        0.0000
     42 C          14.0134    6.5930   12.8436 C.3     1  UNL1        0.0000
     43 H          15.0542    6.8881   12.9200 H       1  UNL1        0.0000
     44 H          13.4087    7.4160   13.2053 H       1  UNL1        0.0000
     45 H          13.7811    6.4586   11.7921 H       1  UNL1        0.0000
     46 C          14.9453    0.9839    9.7102 C.3     1  UNL1        0.0000
     47 H          15.1684    2.0260    9.9201 H       1  UNL1        0.0000
     48 H          14.4025    0.9511    8.7707 H       1  UNL1        0.0000
     49 H          15.8895    0.4684    9.5648 H       1  UNL1        0.0000
     50 C          15.0804   -0.0743   12.6501 C.3     1  UNL1        0.0000
     51 H          15.9583    0.5623   12.6001 H       1  UNL1        0.0000
     52 H          15.4314   -1.0996   12.7099 H       1  UNL1        0.0000
     53 H          14.5654    0.1531   13.5831 H       1  UNL1        0.0000
     54 C          13.3509   -1.5380   10.5353 C.3     1  UNL1        0.0000
     55 H          12.7275   -1.4725    9.6493 H       1  UNL1        0.0000
     56 H          12.7859   -2.0640   11.2999 H       1  UNL1        0.0000
     57 H          14.2051   -2.1574   10.2826 H       1  UNL1        0.0000
@<TRIPOS>BOND
     1    29    28    1
     2    31    30    1
     3    28    30   ar
     4    28    26   ar
     5    30    32   ar
     6    27    26    1
     7    26    24   ar
     8    32    33    1
     9    32    23   ar
    10    48    46    1
    11    24    23   ar
    12    24    25    1
    13    17    16    1
    14    49    46    1
    15    55    54    1
    16    23    22    1
    17    46    47    1
    18    46     2    1
    19    19    18    1
    20    16    18   ar
    21    16    14   ar
    22    57    54    1
    23    18    20   ar
    24    54     2    1
    25    54    56    1
    26    15    14    1
    27    14    13   ar
    28    22     5    1
    29    22     4    1
    30     2     5    1
    31     2    50    1
    32    20     4    1
    33    20    21   ar
    34    45    42    1
    35    13    21   ar
    36    13    11   ar
    37    36    34    1
    38    21     6   ar
    39    12    11    1
    40    51    50    1
    41    11     9   ar
    42    50    52    1
    43    50    53    1
    44    42    43    1
    45    42    44    1
    46    42     1    1
    47    35    34    1
    48    34     1    1
    49    34    37    1
    50     6     3    1
    51     6     7   ar
    52     3     1    1
    53     9     7   ar
    54     9    10    1
    55     1    38    1
    56     7     8    1
    57    38    39    1
    58    38    41    1
    59    38    40    1
