@<TRIPOS>MOLECULE
2,3,4
 42 42 0 0 0
SMALL
GASTEIGER

@<TRIPOS>ATOM
      1 SI          1.7081    0.6642    2.7668 Si      1  UNL1        0.0000
      2 N           1.4746    2.2797    2.2027 N.3     1  UNL1        0.0000
      3 N           0.9302    3.9987    1.0391 N.3     1  UNL1        0.0000
      4 N           2.3658    5.3095    2.6562 N.3     1  UNL1        0.0000
      5 C           1.5346    2.8211    1.0087 C.3     1  UNL1        0.0000
      6 C           2.1886    2.2630   -0.1852 C.ar    1  UNL1        0.0000
      7 C           3.4350    1.6462   -0.1024 C.ar    1  UNL1        0.0000
      8 C           4.0430    1.1455   -1.2378 C.ar    1  UNL1        0.0000
      9 C           3.4173    1.2532   -2.4695 C.ar    1  UNL1        0.0000
     10 C           2.1802    1.8709   -2.5622 C.ar    1  UNL1        0.0000
     11 C           1.5706    2.3782   -1.4305 C.ar    1  UNL1        0.0000
     12 C           1.7387   -0.6410    1.3651 C.3     1  UNL1        0.0000
     13 C           3.3279    0.6159    3.7816 C.3     1  UNL1        0.0000
     14 C           0.2480    0.2047    3.9130 C.3     1  UNL1        0.0000
     15 C           1.4542    5.1300    0.3404 C.3     1  UNL1        0.0000
     16 C           2.1422    6.0399    1.3988 C.3     1  UNL1        0.0000
     17 C           2.5008    6.2605    3.7588 C.3     1  UNL1        0.0000
     18 C           3.5986    4.5301    2.5715 C.3     1  UNL1        0.0000
     19 H           3.9217    1.5714    0.8586 H       1  UNL1        0.0000
     20 H           5.0107    0.6708   -1.1640 H       1  UNL1        0.0000
     21 H           3.8929    0.8587   -3.3550 H       1  UNL1        0.0000
     22 H           1.6895    1.9564   -3.5208 H       1  UNL1        0.0000
     23 H           0.6031    2.8563   -1.4966 H       1  UNL1        0.0000
     24 H           1.4365   -1.6105    1.7468 H       1  UNL1        0.0000
     25 H           2.7278   -0.7525    0.9363 H       1  UNL1        0.0000
     26 H           1.0637   -0.3786    0.5556 H       1  UNL1        0.0000
     27 H           3.4719   -0.3641    4.2243 H       1  UNL1        0.0000
     28 H           4.2077    0.8387    3.1847 H       1  UNL1        0.0000
     29 H           3.2814    1.3397    4.5896 H       1  UNL1        0.0000
     30 H          -0.0060    1.0408    4.5575 H       1  UNL1        0.0000
     31 H          -0.6414   -0.0802    3.3578 H       1  UNL1        0.0000
     32 H           0.5160   -0.6314    4.5514 H       1  UNL1        0.0000
     33 H           2.1712    4.8236   -0.4363 H       1  UNL1        0.0000
     34 H           0.6415    5.6922   -0.1330 H       1  UNL1        0.0000
     35 H           1.4756    6.8750    1.6172 H       1  UNL1        0.0000
     36 H           3.0911    6.4357    1.0099 H       1  UNL1        0.0000
     37 H           2.6987    5.7113    4.6802 H       1  UNL1        0.0000
     38 H           1.5696    6.8140    3.8797 H       1  UNL1        0.0000
     39 H           3.3226    6.9652    3.5728 H       1  UNL1        0.0000
     40 H           3.6800    3.8918    3.4523 H       1  UNL1        0.0000
     41 H           3.5867    3.9002    1.6844 H       1  UNL1        0.0000
     42 H           4.4734    5.1943    2.5205 H       1  UNL1        0.0000
@<TRIPOS>BOND
     1    22    10    1
     2    21     9    1
     3    10     9   ar
     4    10    11   ar
     5     9     8   ar
     6    23    11    1
     7    11     6   ar
     8     8    20    1
     9     8     7   ar
    10    33    15    1
    11     6     7   ar
    12     6     5    1
    13    34    15    1
    14     7    19    1
    15    15     3    1
    16    15    16    1
    17    26    12    1
    18    25    12    1
    19     5     3    1
    20     5     2    1
    21    36    16    1
    22    12    24    1
    23    12     1    1
    24    16    35    1
    25    16     4    1
    26    41    18    1
    27     2     1    1
    28    42    18    1
    29    18     4    1
    30    18    40    1
    31     4    17    1
    32     1    13    1
    33     1    14    1
    34    28    13    1
    35    31    14    1
    36    39    17    1
    37    17    38    1
    38    17    37    1
    39    13    27    1
    40    13    29    1
    41    14    32    1
    42    14    30    1
