@<TRIPOS>MOLECULE
3,4,5
 49 49 0 0 0
SMALL
GASTEIGER

@<TRIPOS>ATOM
      1 SI          1.4197    6.1431   11.3317 Si      1  UNL1        0.0000
      2 SI          2.3257    1.6072    7.0919 Si      1  UNL1        0.0000
      3 N           3.0631    4.8129    8.5098 N.pl3   1  UNL1        0.0000
      4 N           0.9334    5.0967   10.0685 N.3     1  UNL1        0.0000
      5 N           1.3688    2.7978    7.8626 N.3     1  UNL1        0.0000
      6 C           4.3729    5.0042    8.6492 C.3     1  UNL1        0.0000
      7 H           4.8592    4.4066    9.4128 H       1  UNL1        0.0000
      8 C           5.0955    5.9014    7.8876 C.2     1  UNL1        0.0000
      9 H           6.1567    6.0227    8.0370 H       1  UNL1        0.0000
     10 C           4.4158    6.6377    6.9257 C.2     1  UNL1        0.0000
     11 H           4.9383    7.3474    6.3013 H       1  UNL1        0.0000
     12 C           3.0556    6.4490    6.7826 C.2     1  UNL1        0.0000
     13 H           2.5173    7.0174    6.0427 H       1  UNL1        0.0000
     14 C           2.3927    5.5255    7.5954 C.2     1  UNL1        0.0000
     15 C           0.9160    5.2797    7.5275 C.3     1  UNL1        0.0000
     16 C           0.6370    3.7878    7.1373 C.3     1  UNL1        0.0000
     17 H          -0.4511    3.6361    7.2791 H       1  UNL1        0.0000
     18 H           0.8277    3.7082    6.0556 H       1  UNL1        0.0000
     19 C          -0.0802    7.1408   12.0080 C.3     1  UNL1        0.0000
     20 H          -0.8652    6.4825   12.3686 H       1  UNL1        0.0000
     21 H          -0.5141    7.7750   11.2403 H       1  UNL1        0.0000
     22 H           0.2135    7.7832   12.8317 H       1  UNL1        0.0000
     23 C           2.1718    5.1038   12.7425 C.3     1  UNL1        0.0000
     24 H           1.9234    4.0518   12.6328 H       1  UNL1        0.0000
     25 H           1.8033    5.4394   13.7059 H       1  UNL1        0.0000
     26 H           3.2533    5.1945   12.7626 H       1  UNL1        0.0000
     27 C           2.7094    7.4668   10.7687 C.3     1  UNL1        0.0000
     28 H           2.3742    7.9841    9.8727 H       1  UNL1        0.0000
     29 H           3.6708    7.0124   10.5401 H       1  UNL1        0.0000
     30 H           2.8743    8.2187   11.5335 H       1  UNL1        0.0000
     31 C           4.1364    2.1625    6.7088 C.3     1  UNL1        0.0000
     32 H           4.1578    3.0898    6.1395 H       1  UNL1        0.0000
     33 H           4.6683    1.4142    6.1291 H       1  UNL1        0.0000
     34 H           4.6957    2.3282    7.6270 H       1  UNL1        0.0000
     35 C           1.5847    1.1012    5.3931 C.3     1  UNL1        0.0000
     36 H           1.7233    1.8807    4.6497 H       1  UNL1        0.0000
     37 H           0.5204    0.9005    5.4659 H       1  UNL1        0.0000
     38 H           2.0630    0.2051    5.0127 H       1  UNL1        0.0000
     39 C           2.3727    0.0733    8.2311 C.3     1  UNL1        0.0000
     40 H           3.3065   -0.4674    8.1161 H       1  UNL1        0.0000
     41 H           1.5692   -0.6199    8.0016 H       1  UNL1        0.0000
     42 H           2.2763    0.3687    9.2730 H       1  UNL1        0.0000
     43 C           0.2069    6.1480    6.4799 C.3     1  UNL1        0.0000
     44 H           0.3288    7.2078    6.6957 H       1  UNL1        0.0000
     45 H          -0.8585    5.9256    6.4916 H       1  UNL1        0.0000
     46 H           0.5792    5.9430    5.4781 H       1  UNL1        0.0000
     47 C           0.2778    5.6336    8.9157 C.3     1  UNL1        0.0000
     48 H           0.2350    6.7340    8.9612 H       1  UNL1        0.0000
     49 H          -0.7709    5.2821    8.8680 H       1  UNL1        0.0000
@<TRIPOS>BOND
     1    36    35    1
     2    38    35    1
     3    35    37    1
     4    35     2    1
     5    46    43    1
     6    13    12    1
     7    18    16    1
     8    33    31    1
     9    32    31    1
    10    11    10    1
    11    43    45    1
    12    43    44    1
    13    43    15    1
    14    31     2    1
    15    31    34    1
    16    12    10    1
    17    12    14    2
    18    10     8    2
    19     2     5    1
    20     2    39    1
    21    16    17    1
    22    16    15    1
    23    16     5    1
    24    15    14    1
    25    15    47    1
    26    14     3    1
    27     8     9    1
    28     8     6    1
    29    41    39    1
    30    40    39    1
    31    39    42    1
    32     3     6    1
    33     6     7    1
    34    49    47    1
    35    47    48    1
    36    47     4    1
    37    28    27    1
    38     4     1    1
    39    29    27    1
    40    27     1    1
    41    27    30    1
    42    21    19    1
    43     1    19    1
    44     1    23    1
    45    19    20    1
    46    19    22    1
    47    24    23    1
    48    23    26    1
    49    23    25    1
