@<TRIPOS>MOLECULE
3,4,5
 55 60 0 0 0
SMALL
GASTEIGER

@<TRIPOS>ATOM
      1 O           3.7965    3.3939   12.0889 O.2     1  UNL1       -0.4759
      2 O           5.3212   10.0057   16.6876 O.2     1  UNL1       -0.4759
      3 N           4.7012    5.3714   12.7402 N.pl3   1  UNL1       -0.2065
      4 N           3.4844    6.5102   15.0351 N.ar    1  UNL1       -0.2463
      5 N           5.5366    8.4015   15.0998 N.pl3   1  UNL1       -0.2065
      6 C           5.4484    4.9650   11.5487 C.3     1  UNL1        0.1045
      7 H           6.5217    4.9409   11.7582 H       1  UNL1        0.0602
      8 C           4.9255    3.5370   11.2582 C.3     1  UNL1        0.1153
      9 H           4.6234    3.4064   10.2155 H       1  UNL1        0.0720
     10 H           5.6622    2.7666   11.5172 H       1  UNL1        0.0720
     11 C           3.7704    4.4667   12.9356 C.2     1  UNL1        0.2021
     12 C           2.7781    4.4688   13.9099 C.2     1  UNL1        0.0230
     13 H           2.0856    3.6436   13.8976 H       1  UNL1        0.0690
     14 C           2.6509    5.4482   14.8703 C.ar    1  UNL1        0.0771
     15 C           1.6148    5.4633   15.8855 C.ar    1  UNL1        0.0097
     16 C           1.8792    6.5867   16.6883 C.ar    1  UNL1        0.0097
     17 C           3.0637    7.2069   16.1257 C.ar    1  UNL1        0.0771
     18 C           3.6732    8.3276   16.6406 C.2     1  UNL1        0.0230
     19 H           3.2430    8.8295   17.4906 H       1  UNL1        0.0690
     20 C           4.8325    8.8724   16.1027 C.2     1  UNL1        0.2021
     21 C           6.4232   10.4350   15.9212 C.3     1  UNL1        0.1153
     22 H           7.2616   10.6525   16.5888 H       1  UNL1        0.0720
     23 H           6.1493   11.3466   15.3770 H       1  UNL1        0.0720
     24 C           6.7141    9.2514   14.9663 C.3     1  UNL1        0.1045
     25 H           6.8141    9.6014   13.9358 H       1  UNL1        0.0602
     26 C           0.5305    4.6423   16.1502 C.ar    1  UNL1       -0.0519
     27 H           0.3185    3.7790   15.5375 H       1  UNL1        0.0624
     28 C          -0.2821    4.9628   17.2237 C.ar    1  UNL1       -0.0611
     29 H          -1.1370    4.3423   17.4509 H       1  UNL1        0.0618
     30 C          -0.0199    6.0750   18.0190 C.ar    1  UNL1       -0.0611
     31 H          -0.6758    6.2965   18.8485 H       1  UNL1        0.0618
     32 C           1.0625    6.8987   17.7632 C.ar    1  UNL1       -0.0519
     33 H           1.2581    7.7608   18.3830 H       1  UNL1        0.0624
     34 C           7.9864    8.5516   15.3845 C.ar    1  UNL1       -0.0221
     35 C           7.9641    7.5503   16.3466 C.ar    1  UNL1       -0.0566
     36 H           7.0174    7.2398   16.7663 H       1  UNL1        0.0621
     37 C           9.1407    6.9496   16.7571 C.ar    1  UNL1       -0.0614
     38 H           9.1135    6.1711   17.5055 H       1  UNL1        0.0618
     39 C          10.3506    7.3465   16.2137 C.ar    1  UNL1       -0.0617
     40 H          11.2690    6.8770   16.5339 H       1  UNL1        0.0618
     41 C          10.3801    8.3521   15.2624 C.ar    1  UNL1       -0.0614
     42 H          11.3218    8.6690   14.8391 H       1  UNL1        0.0618
     43 C           9.2043    8.9545   14.8527 C.ar    1  UNL1       -0.0566
     44 H           9.2284    9.7406   14.1115 H       1  UNL1        0.0621
     45 C           5.1942    5.8636   10.3623 C.ar    1  UNL1       -0.0221
     46 C           3.8933    6.2092   10.0176 C.ar    1  UNL1       -0.0566
     47 H           3.0745    5.8733   10.6333 H       1  UNL1        0.0621
     48 C           3.6502    6.9966    8.9074 C.ar    1  UNL1       -0.0614
     49 H           2.6357    7.2636    8.6523 H       1  UNL1        0.0618
     50 C           4.7038    7.4432    8.1275 C.ar    1  UNL1       -0.0617
     51 H           4.5151    8.0619    7.2626 H       1  UNL1        0.0618
     52 C           6.0009    7.0906    8.4583 C.ar    1  UNL1       -0.0614
     53 H           6.8261    7.4297    7.8493 H       1  UNL1        0.0618
     54 C           6.2449    6.3000    9.5684 C.ar    1  UNL1       -0.0566
     55 H           7.2586    6.0201    9.8188 H       1  UNL1        0.0621
@<TRIPOS>BOND
     1    51    50    1
     2    53    52    1
     3    50    52   ar
     4    50    48   ar
     5    52    54   ar
     6    49    48    1
     7    48    46   ar
     8    54    55    1
     9    54    45   ar
    10    46    45   ar
    11    46    47    1
    12     9     8    1
    13    45     6    1
    14     8    10    1
    15     8     6    1
    16     8     1    1
    17     6     7    1
    18     6     3    1
    19     1    11    1
    20     3    11    1
    21    11    12    2
    22    13    12    1
    23    12    14    1
    24    25    24    1
    25    44    43    1
    26    42    41    1
    27    43    41   ar
    28    43    34   ar
    29    14     4   ar
    30    14    15   ar
    31    24     5    1
    32    24    34    1
    33    24    21    1
    34     4    17   ar
    35     5    20    1
    36    41    39   ar
    37    23    21    1
    38    34    35   ar
    39    27    26    1
    40    15    26   ar
    41    15    16   ar
    42    21    22    1
    43    21     2    1
    44    20    18    2
    45    20     2    1
    46    17    18    1
    47    17    16   ar
    48    26    28   ar
    49    39    40    1
    50    39    37   ar
    51    35    37   ar
    52    35    36    1
    53    18    19    1
    54    16    32   ar
    55    37    38    1
    56    28    29    1
    57    28    30   ar
    58    32    30   ar
    59    32    33    1
    60    30    31    1
