@<TRIPOS>MOLECULE
19,20,21
 67 69 0 0 0
SMALL
GASTEIGER

@<TRIPOS>ATOM
      1 C           8.1328   11.5586   12.2551 C.3     1  UNL1       -0.0228
      2 H           8.2118   10.6774   12.8875 H       1  UNL1        0.0291
      3 H           9.0558   11.6587   11.6818 H       1  UNL1        0.0291
      4 H           7.3167   11.4060   11.5489 H       1  UNL1        0.0291
      5 C           7.8988   12.7819   13.0996 C.2     1  UNL1        0.0510
      6 C           7.6565   14.0395   12.5238 C.2     1  UNL1        0.0720
      7 C           7.6819   14.3211   11.1583 C.2     1  UNL1       -0.0371
      8 H           7.9662   13.5486   10.4604 H       1  UNL1        0.0637
      9 C           7.3393   15.5788   10.6947 C.2     1  UNL1       -0.0583
     10 H           7.3582   15.7947    9.6378 H       1  UNL1        0.0619
     11 C           6.9453   16.5643   11.6015 C.2     1  UNL1       -0.0405
     12 H           6.6517   17.5375   11.2407 H       1  UNL1        0.0634
     13 C           6.9240   16.2885   12.9588 C.2     1  UNL1        0.0586
     14 C           6.4526   17.1848   13.9586 C.3     1  UNL1        0.1181
     15 C           5.8850   18.5280   13.5959 C.3     1  UNL1       -0.0340
     16 H           5.5292   19.0379   14.4880 H       1  UNL1        0.0255
     17 H           5.0532   18.4245   12.8999 H       1  UNL1        0.0255
     18 H           6.6468   19.1470   13.1219 H       1  UNL1        0.0255
     19 N           7.9066   12.7300   14.4541 N.pl3   1  UNL1       -0.2171
     20 N           7.3111   15.0450   13.4417 N.pl3   1  UNL1       -0.2154
     21 N           6.5033   16.7391   15.2150 N.pl3   1  UNL1       -0.2352
     22 C           7.6910   11.5093   15.1099 C.ar    1  UNL1        0.0597
     23 C           8.7221   10.8907   15.8287 C.ar    1  UNL1       -0.0244
     24 C           8.4623    9.7112   16.5104 C.ar    1  UNL1       -0.0567
     25 H           9.2603    9.2349   17.0623 H       1  UNL1        0.0621
     26 C           7.2042    9.1411   16.4846 C.ar    1  UNL1       -0.0611
     27 H           7.0140    8.2195   17.0143 H       1  UNL1        0.0618
     28 C           6.1835    9.7557   15.7791 C.ar    1  UNL1       -0.0567
     29 H           5.2055    9.3008   15.7711 H       1  UNL1        0.0621
     30 C           6.4018   10.9374   15.0906 C.ar    1  UNL1       -0.0244
     31 C          10.1126   11.4638   15.8238 C.3     1  UNL1       -0.0287
     32 H          10.0617   12.5352   15.6089 H       1  UNL1        0.0311
     33 H          10.5655   11.3197   16.8072 H       1  UNL1        0.0311
     34 C          10.9874   10.7819   14.7699 C.3     1  UNL1       -0.0612
     35 H          10.5944   10.9689   13.7744 H       1  UNL1        0.0233
     36 H          11.0145    9.7065   14.9338 H       1  UNL1        0.0233
     37 H          12.0049   11.1642   14.8166 H       1  UNL1        0.0233
     38 C           5.2997   11.6434   14.3384 C.3     1  UNL1       -0.0287
     39 H           5.3300   11.3362   13.2881 H       1  UNL1        0.0311
     40 H           5.5033   12.7269   14.3622 H       1  UNL1        0.0311
     41 C           3.8973   11.3985   14.8874 C.3     1  UNL1       -0.0612
     42 H           3.1883   12.0526   14.3841 H       1  UNL1        0.0233
     43 H           3.8618   11.6085   15.9540 H       1  UNL1        0.0233
     44 H           3.5774   10.3726   14.7229 H       1  UNL1        0.0233
     45 C           5.8105   17.4101   16.2403 C.ar    1  UNL1        0.0552
     46 C           4.4592   17.0876   16.4589 C.ar    1  UNL1       -0.0248
     47 C           3.7971   17.6763   17.5246 C.ar    1  UNL1       -0.0568
     48 H           2.7616   17.4402   17.7120 H       1  UNL1        0.0621
     49 C           4.4433   18.5781   18.3507 C.ar    1  UNL1       -0.0611
     50 H           3.9129   19.0269   19.1772 H       1  UNL1        0.0618
     51 C           5.7599   18.9213   18.1069 C.ar    1  UNL1       -0.0568
     52 H           6.2439   19.6479   18.7403 H       1  UNL1        0.0621
     53 C           6.4589   18.3507   17.0537 C.ar    1  UNL1       -0.0248
     54 C           3.7614   16.1459   15.5068 C.3     1  UNL1       -0.0287
     55 H           4.5062   15.4535   15.0879 H       1  UNL1        0.0311
     56 H           3.3675   16.7323   14.6693 H       1  UNL1        0.0311
     57 C           2.6248   15.3377   16.1257 C.3     1  UNL1       -0.0612
     58 H           2.2808   14.5869   15.4177 H       1  UNL1        0.0233
     59 H           1.7774   15.9702   16.3781 H       1  UNL1        0.0233
     60 H           2.9611   14.8306   17.0272 H       1  UNL1        0.0233
     61 C           7.8722   18.7539   16.7225 C.3     1  UNL1       -0.0287
     62 H           8.3399   17.9302   16.1760 H       1  UNL1        0.0311
     63 H           7.8364   19.6117   16.0413 H       1  UNL1        0.0311
     64 C           8.7338   19.1160   17.9283 C.3     1  UNL1       -0.0612
     65 H           9.7720   19.2197   17.6195 H       1  UNL1        0.0233
     66 H           8.6747   18.3398   18.6869 H       1  UNL1        0.0233
     67 H           8.4222   20.0580   18.3731 H       1  UNL1        0.0233
@<TRIPOS>BOND
     1    10     9    1
     2     8     7    1
     3     9     7    2
     4     9    11    1
     5     7     6    1
     6    12    11    1
     7     4     1    1
     8    11    13    2
     9     3     1    1
    10     1     2    1
    11     1     5    1
    12     6     5    2
    13     6    20    1
    14    17    15    1
    15    13    20    1
    16    13    14    1
    17     5    19    1
    18    18    15    1
    19    39    38    1
    20    15    14    1
    21    15    16    1
    22    35    34    1
    23    14    21    1
    24    38    40    1
    25    38    41    1
    26    38    30    1
    27    42    41    1
    28    19    22    1
    29    56    54    1
    30    44    41    1
    31    34    37    1
    32    34    36    1
    33    34    31    1
    34    41    43    1
    35    55    54    1
    36    30    22   ar
    37    30    28   ar
    38    22    23   ar
    39    21    45    1
    40    58    57    1
    41    54    57    1
    42    54    46    1
    43    32    31    1
    44    29    28    1
    45    28    26   ar
    46    31    23    1
    47    31    33    1
    48    23    24   ar
    49    63    61    1
    50    57    59    1
    51    57    60    1
    52    62    61    1
    53    45    46   ar
    54    45    53   ar
    55    46    47   ar
    56    26    24   ar
    57    26    27    1
    58    24    25    1
    59    61    53    1
    60    61    64    1
    61    53    51   ar
    62    47    48    1
    63    47    49   ar
    64    65    64    1
    65    64    67    1
    66    64    66    1
    67    51    49   ar
    68    51    52    1
    69    49    50    1
