@<TRIPOS>MOLECULE
1,2,3
 61 63 0 0 0
SMALL
GASTEIGER

@<TRIPOS>ATOM
      1 N          -1.4867    4.7562   -2.4759 N.pl3   1  UNL1       -0.2172
      2 N           0.1882    5.9412   -1.7142 N.pl3   1  UNL1       -0.2185
      3 N          -1.5921    2.1020   -2.4173 N.pl3   1  UNL1       -0.2205
      4 C          -1.0016    5.9908   -2.2698 C.3     1  UNL1        0.1807
      5 C          -1.7270    7.2877   -2.6487 C.3     1  UNL1        0.0070
      6 C          -0.9927    8.5981   -2.3326 C.3     1  UNL1       -0.0563
      7 H          -0.8229    8.7298   -1.2692 H       1  UNL1        0.0236
      8 H          -1.6204    9.4201   -2.6780 H       1  UNL1        0.0236
      9 H          -0.0373    8.6676   -2.8423 H       1  UNL1        0.0236
     10 C          -1.9038    7.2830   -4.1819 C.3     1  UNL1       -0.0563
     11 H          -0.9964    7.6695   -4.6432 H       1  UNL1        0.0236
     12 H          -2.7304    7.9274   -4.4773 H       1  UNL1        0.0236
     13 H          -2.0663    6.2905   -4.5893 H       1  UNL1        0.0236
     14 C          -3.0392    7.3471   -1.8391 C.3     1  UNL1       -0.0563
     15 H          -2.8358    7.7932   -0.8668 H       1  UNL1        0.0236
     16 H          -3.4688    6.3675   -1.6552 H       1  UNL1        0.0236
     17 H          -3.7769    7.9696   -2.3433 H       1  UNL1        0.0236
     18 C          -2.6241    4.2083   -2.9911 C.2     1  UNL1        0.0734
     19 C          -3.7495    4.8161   -3.5501 C.2     1  UNL1       -0.0405
     20 H          -3.8262    5.8826   -3.6291 H       1  UNL1        0.0634
     21 C          -4.8348    4.0894   -4.0382 C.2     1  UNL1       -0.0738
     22 H          -5.6682    4.6355   -4.4576 H       1  UNL1        0.0579
     23 C          -4.8651    2.7231   -3.9978 C.3     1  UNL1        0.0147
     24 H          -5.7067    2.1635   -4.3769 H       1  UNL1        0.0401
     25 C          -3.7695    2.0362   -3.4474 C.2     1  UNL1       -0.0148
     26 C          -3.7404    0.6287   -3.3760 C.2     1  UNL1       -0.0549
     27 H          -4.5846    0.0699   -3.7553 H       1  UNL1        0.0621
     28 C          -2.6543   -0.0018   -2.8348 C.2     1  UNL1       -0.0457
     29 H          -2.6007   -1.0770   -2.7646 H       1  UNL1        0.0631
     30 C          -1.5978    0.7875   -2.3668 C.2     1  UNL1        0.0174
     31 H          -0.7201    0.3212   -1.9325 H       1  UNL1        0.0802
     32 C          -2.6494    2.7565   -2.9445 C.2     1  UNL1        0.0794
     33 C           1.0381    6.9688   -1.3090 C.ar    1  UNL1        0.0573
     34 C           2.0841    7.3845   -2.1536 C.ar    1  UNL1       -0.0219
     35 C           3.0084    8.3050   -1.6853 C.ar    1  UNL1       -0.0565
     36 H           3.8130    8.6276   -2.3293 H       1  UNL1        0.0621
     37 C           2.9187    8.8198   -0.4055 C.ar    1  UNL1       -0.0611
     38 H           3.6433    9.5406   -0.0570 H       1  UNL1        0.0618
     39 C           1.8999    8.3981    0.4293 C.ar    1  UNL1       -0.0565
     40 H           1.8441    8.7926    1.4323 H       1  UNL1        0.0621
     41 C           0.9545    7.4798    0.0004 C.ar    1  UNL1       -0.0219
     42 C           2.2236    6.7952   -3.5387 C.3     1  UNL1       -0.0197
     43 H           1.3249    6.2063   -3.7498 H       1  UNL1        0.0344
     44 C           3.4236    5.8446   -3.5710 C.3     1  UNL1       -0.0586
     45 H           3.4857    5.3459   -4.5361 H       1  UNL1        0.0235
     46 H           3.3124    5.0886   -2.7950 H       1  UNL1        0.0235
     47 H           4.3495    6.3929   -3.4039 H       1  UNL1        0.0235
     48 C           2.3598    7.8667   -4.6222 C.3     1  UNL1       -0.0586
     49 H           1.5367    8.5772   -4.5755 H       1  UNL1        0.0235
     50 H           2.3539    7.4014   -5.6060 H       1  UNL1        0.0235
     51 H           3.2899    8.4200   -4.5164 H       1  UNL1        0.0235
     52 C          -0.1153    6.9781    0.9440 C.3     1  UNL1       -0.0197
     53 H          -0.8996    6.4970    0.3510 H       1  UNL1        0.0344
     54 C           0.4958    5.9161    1.8630 C.3     1  UNL1       -0.0586
     55 H           0.8517    5.0742    1.2679 H       1  UNL1        0.0235
     56 H          -0.2463    5.5506    2.5688 H       1  UNL1        0.0235
     57 H           1.3307    6.3353    2.4225 H       1  UNL1        0.0235
     58 C          -0.7600    8.0934    1.7690 C.3     1  UNL1       -0.0586
     59 H          -1.0884    8.9125    1.1317 H       1  UNL1        0.0235
     60 H          -0.0674    8.4920    2.5061 H       1  UNL1        0.0235
     61 H          -1.6263    7.7043    2.3006 H       1  UNL1        0.0235
@<TRIPOS>BOND
     1    50    48    1
     2    11    10    1
     3    48    49    1
     4    48    51    1
     5    48    42    1
     6    13    10    1
     7    45    44    1
     8    12    10    1
     9    22    21    1
    10    24    23    1
    11    10     5    1
    12    21    23    1
    13    21    19    2
    14    23    25    1
    15    27    26    1
    16    43    42    1
    17    20    19    1
    18    44    42    1
    19    44    47    1
    20    44    46    1
    21    19    18    1
    22    42    34    1
    23    25    26    2
    24    25    32    1
    25    26    28    1
    26    18    32    2
    27    18     1    1
    28    32     3    1
    29     9     6    1
    30    28    29    1
    31    28    30    2
    32     8     6    1
    33     5     6    1
    34     5     4    1
    35     5    14    1
    36     1     4    1
    37     3    30    1
    38    30    31    1
    39    17    14    1
    40     6     7    1
    41    36    35    1
    42     4     2    1
    43    34    35   ar
    44    34    33   ar
    45    14    16    1
    46    14    15    1
    47     2    33    1
    48    35    37   ar
    49    33    41   ar
    50    37    38    1
    51    37    39   ar
    52    41    39   ar
    53    41    52    1
    54    53    52    1
    55    39    40    1
    56    52    58    1
    57    52    54    1
    58    59    58    1
    59    55    54    1
    60    58    61    1
    61    58    60    1
    62    54    57    1
    63    54    56    1
