@<TRIPOS>MOLECULE
1,25,49
 77 79 0 0 0
SMALL
GASTEIGER

@<TRIPOS>ATOM
      1 N          -5.5195    7.7804    6.7206 N.pl3   1  UNL1        0.0000
      2 C          -6.0750    7.5844    7.9538 C.ar    1  UNL1        0.0000
      3 C          -5.7636    8.3607    9.0833 C.ar    1  UNL1        0.0000
      4 H          -5.0274    9.1435    8.9812 H       1  UNL1        0.0000
      5 C          -6.3822    8.1399   10.2955 C.ar    1  UNL1        0.0000
      6 H          -6.1162    8.7546   11.1445 H       1  UNL1        0.0000
      7 C          -7.3418    7.1434   10.4547 C.ar    1  UNL1        0.0000
      8 C          -7.6435    6.3528    9.3513 C.ar    1  UNL1        0.0000
      9 H          -8.3596    5.5493    9.4641 H       1  UNL1        0.0000
     10 C          -7.0312    6.5569    8.1289 C.ar    1  UNL1        0.0000
     11 H          -7.2122    5.8746    7.2926 H       1  UNL1        0.0000
     12 C          -7.9973    6.8982   11.7805 C.3     1  UNL1        0.0000
     13 H          -9.0517    6.6567   11.6577 H       1  UNL1        0.0000
     14 H          -7.9088    7.7682   12.4265 H       1  UNL1        0.0000
     15 H          -7.5206    6.0574   12.2847 H       1  UNL1        0.0000
     16 SI         -3.8552    8.1731    6.4155 Si      1  UNL1        0.0000
     17 C          -3.6559   10.0193    5.9058 C.3     1  UNL1        0.0000
     18 H          -4.1613   10.2183    4.9645 H       1  UNL1        0.0000
     19 H          -2.6060   10.2546    5.7663 H       1  UNL1        0.0000
     20 H          -4.0475   10.7145    6.6455 H       1  UNL1        0.0000
     21 C          -2.7320    7.9082    7.9500 C.3     1  UNL1        0.0000
     22 H          -3.1127    7.1145    8.5847 H       1  UNL1        0.0000
     23 H          -2.6299    8.7998    8.5601 H       1  UNL1        0.0000
     24 H          -1.7356    7.6228    7.6315 H       1  UNL1        0.0000
     25 N          -5.9295    8.2543    3.6016 N.pl3   1  UNL1        0.0000
     26 C          -6.4078    9.5204    3.4123 C.ar    1  UNL1        0.0000
     27 C          -6.5347   10.1272    2.1507 C.ar    1  UNL1        0.0000
     28 H          -6.2186    9.5730    1.2800 H       1  UNL1        0.0000
     29 C          -7.0555   11.3965    2.0168 C.ar    1  UNL1        0.0000
     30 H          -7.1357   11.8342    1.0313 H       1  UNL1        0.0000
     31 C          -7.4806   12.1317    3.1208 C.ar    1  UNL1        0.0000
     32 C          -7.3407   11.5526    4.3769 C.ar    1  UNL1        0.0000
     33 H          -7.6304   12.1217    5.2507 H       1  UNL1        0.0000
     34 C          -6.8178   10.2820    4.5314 C.ar    1  UNL1        0.0000
     35 H          -6.6330    9.8719    5.5291 H       1  UNL1        0.0000
     36 C          -8.0264   13.5194    2.9655 C.3     1  UNL1        0.0000
     37 H          -8.7994   13.7219    3.7045 H       1  UNL1        0.0000
     38 H          -8.4421   13.6669    1.9714 H       1  UNL1        0.0000
     39 H          -7.2315   14.2522    3.1058 H       1  UNL1        0.0000
     40 SI         -4.5950    7.5434    2.7465 Si      1  UNL1        0.0000
     41 C          -3.5512    8.8413    1.7916 C.3     1  UNL1        0.0000
     42 H          -3.5795    9.8086    2.2830 H       1  UNL1        0.0000
     43 H          -3.8820    8.9807    0.7675 H       1  UNL1        0.0000
     44 H          -2.5150    8.5243    1.7526 H       1  UNL1        0.0000
     45 C          -5.1976    6.2627    1.4407 C.3     1  UNL1        0.0000
     46 H          -5.6902    5.4212    1.9205 H       1  UNL1        0.0000
     47 H          -4.3506    5.8706    0.8875 H       1  UNL1        0.0000
     48 H          -5.8912    6.6825    0.7152 H       1  UNL1        0.0000
     49 N          -6.3608    5.3535    4.8343 N.pl3   1  UNL1        0.0000
     50 C          -7.3248    4.7260    4.0958 C.ar    1  UNL1        0.0000
     51 C          -8.0734    5.4702    3.1546 C.ar    1  UNL1        0.0000
     52 H          -7.7771    6.5062    2.9634 H       1  UNL1        0.0000
     53 C          -9.0831    4.8793    2.4182 C.ar    1  UNL1        0.0000
     54 H          -9.6298    5.4667    1.6921 H       1  UNL1        0.0000
     55 C          -9.3988    3.5335    2.5687 C.ar    1  UNL1        0.0000
     56 C          -8.6475    2.7890    3.4745 C.ar    1  UNL1        0.0000
     57 H          -8.8605    1.7357    3.5944 H       1  UNL1        0.0000
     58 C          -7.6396    3.3619    4.2207 C.ar    1  UNL1        0.0000
     59 H          -7.0746    2.7666    4.9218 H       1  UNL1        0.0000
     60 C         -10.4823    2.8996    1.7489 C.3     1  UNL1        0.0000
     61 H         -11.3325    3.5703    1.6379 H       1  UNL1        0.0000
     62 H         -10.8230    1.9722    2.2026 H       1  UNL1        0.0000
     63 H         -10.1100    2.6669    0.7511 H       1  UNL1        0.0000
     64 SI         -4.8089    4.6886    5.2424 Si      1  UNL1        0.0000
     65 C          -4.3853    3.1032    4.2460 C.3     1  UNL1        0.0000
     66 H          -4.8466    3.1196    3.2638 H       1  UNL1        0.0000
     67 H          -4.7000    2.1921    4.7445 H       1  UNL1        0.0000
     68 H          -3.3127    3.0350    4.1025 H       1  UNL1        0.0000
     69 C          -4.7315    4.1984    7.1030 C.3     1  UNL1        0.0000
     70 H          -4.8228    5.0746    7.7393 H       1  UNL1        0.0000
     71 H          -3.7760    3.7347    7.3247 H       1  UNL1        0.0000
     72 H          -5.5080    3.4944    7.3948 H       1  UNL1        0.0000
     73 SI         -3.5235    6.6058    4.6543 Si      1  UNL1        0.0000
     74 C          -1.6689    6.2019    4.3527 C.3     1  UNL1        0.0000
     75 H          -1.1021    7.0953    4.1139 H       1  UNL1        0.0000
     76 H          -1.5422    5.5076    3.5290 H       1  UNL1        0.0000
     77 H          -1.2129    5.7529    5.2285 H       1  UNL1        0.0000
@<TRIPOS>BOND
     1    48    45    1
     2    63    60    1
     3    43    41    1
     4    47    45    1
     5    30    29    1
     6    28    27    1
     7    45    46    1
     8    45    40    1
     9    61    60    1
    10    54    53    1
    11    60    62    1
    12    60    55    1
    13    44    41    1
    14    41    42    1
    15    41    40    1
    16    38    36    1
    17    29    27   ar
    18    29    31   ar
    19    27    26   ar
    20    53    55   ar
    21    53    51   ar
    22    55    56   ar
    23    40    25    1
    24    40    73    1
    25    52    51    1
    26    36    39    1
    27    36    31    1
    28    36    37    1
    29    31    32   ar
    30    51    50   ar
    31    66    65    1
    32    26    25    1
    33    26    34   ar
    34    56    57    1
    35    56    58   ar
    36    76    74    1
    37    50    58   ar
    38    50    49    1
    39    68    65    1
    40    75    74    1
    41    58    59    1
    42    65    67    1
    43    65    64    1
    44    74    73    1
    45    74    77    1
    46    32    34   ar
    47    32    33    1
    48    34    35    1
    49    73    64    1
    50    73    16    1
    51    49    64    1
    52    18    17    1
    53    64    69    1
    54    19    17    1
    55    17    16    1
    56    17    20    1
    57    16     1    1
    58    16    21    1
    59     1     2    1
    60    69    71    1
    61    69    72    1
    62    69    70    1
    63    11    10    1
    64    24    21    1
    65    21    23    1
    66    21    22    1
    67     2    10   ar
    68     2     3   ar
    69    10     8   ar
    70     4     3    1
    71     3     5   ar
    72     8     9    1
    73     8     7   ar
    74     5     7   ar
    75     5     6    1
    76     7    12    1
    77    13    12    1
    78    12    15    1
    79    12    14    1
