@<TRIPOS>MOLECULE
1,2,3
 56 57 0 0 0
SMALL
GASTEIGER

@<TRIPOS>ATOM
      1 N           2.4565    1.4832    5.2258 N.pl3   1  UNL1       -0.2193
      2 N           1.1909    4.1014    4.6661 N.3     1  UNL1       -0.2251
      3 N           2.8491    5.1975    2.7531 N.pl3   1  UNL1       -0.2437
      4 C           1.4755    0.3549    7.1860 C.3     1  UNL1       -0.0249
      5 H           1.8521   -0.5673    6.7505 H       1  UNL1        0.0290
      6 H           0.4475    0.2077    7.5089 H       1  UNL1        0.0290
      7 H           2.0722    0.5854    8.0693 H       1  UNL1        0.0290
      8 C           1.5864    1.5142    6.2178 C.2     1  UNL1        0.0261
      9 C           0.7170    2.5802    6.4655 C.2     1  UNL1       -0.0422
     10 H           0.0853    2.4514    7.3331 H       1  UNL1        0.0607
     11 C           0.4712    3.7350    5.7147 C.3     1  UNL1        0.0764
     12 C          -0.7308    4.5432    6.1558 C.3     1  UNL1       -0.0396
     13 H          -0.4453    5.5632    6.4142 H       1  UNL1        0.0252
     14 H          -1.2000    4.0936    7.0255 H       1  UNL1        0.0252
     15 H          -1.4712    4.5963    5.3571 H       1  UNL1        0.0252
     16 C           0.7248    5.2738    3.9535 C.3     1  UNL1        0.0441
     17 H           0.6039    6.1320    4.6361 H       1  UNL1        0.0467
     18 H          -0.2646    5.0880    3.5019 H       1  UNL1        0.0467
     19 C           1.6422    5.7456    2.8591 C.3     1  UNL1        0.1129
     20 C           3.6730    5.6502    1.8058 C.2     1  UNL1        0.0125
     21 H           4.6395    5.1656    1.7604 H       1  UNL1        0.0797
     22 C           1.2154    6.7649    2.0066 C.2     1  UNL1       -0.0554
     23 H           0.2259    7.1820    2.1209 H       1  UNL1        0.0595
     24 C           3.0359    0.2351    4.8761 C.ar    1  UNL1        0.0601
     25 C           2.3484   -0.5814    3.9577 C.ar    1  UNL1       -0.0216
     26 C           2.8927   -1.8073    3.6079 C.ar    1  UNL1       -0.0565
     27 H           2.3667   -2.4493    2.9183 H       1  UNL1        0.0621
     28 C           4.1015   -2.2257    4.1317 C.ar    1  UNL1       -0.0611
     29 H           4.5103   -3.1853    3.8521 H       1  UNL1        0.0618
     30 C           4.7871   -1.4070    5.0070 C.ar    1  UNL1       -0.0565
     31 H           5.7357   -1.7359    5.4044 H       1  UNL1        0.0621
     32 C           4.2719   -0.1772    5.3935 C.ar    1  UNL1       -0.0216
     33 C           1.0334   -0.1261    3.3595 C.3     1  UNL1       -0.0197
     34 H           0.9577    0.9623    3.5015 H       1  UNL1        0.0344
     35 C          -0.1424   -0.7915    4.0805 C.3     1  UNL1       -0.0586
     36 H          -1.0831   -0.4922    3.6222 H       1  UNL1        0.0235
     37 H          -0.1644   -0.5035    5.1275 H       1  UNL1        0.0235
     38 H          -0.0584   -1.8751    4.0214 H       1  UNL1        0.0235
     39 C           0.9496   -0.4085    1.8574 C.3     1  UNL1       -0.0586
     40 H           1.8406   -0.0498    1.3476 H       1  UNL1        0.0235
     41 H           0.0840    0.0994    1.4361 H       1  UNL1        0.0235
     42 H           0.8407   -1.4722    1.6597 H       1  UNL1        0.0235
     43 C           5.0547    0.6983    6.3453 C.3     1  UNL1       -0.0197
     44 H           4.4805    1.6174    6.5260 H       1  UNL1        0.0344
     45 C           6.3902    1.0964    5.7112 C.3     1  UNL1       -0.0586
     46 H           7.0118    0.2217    5.5338 H       1  UNL1        0.0235
     47 H           6.9316    1.7712    6.3711 H       1  UNL1        0.0235
     48 H           6.2135    1.5981    4.7591 H       1  UNL1        0.0235
     49 C           5.2871    0.0003    7.6878 C.3     1  UNL1       -0.0586
     50 H           4.3452   -0.3262    8.1220 H       1  UNL1        0.0235
     51 H           5.7697    0.6831    8.3840 H       1  UNL1        0.0235
     52 H           5.9260   -0.8715    7.5678 H       1  UNL1        0.0235
     53 C           3.3342    6.6602    0.9271 C.2     1  UNL1       -0.0466
     54 H           4.0360    6.9940    0.1797 H       1  UNL1        0.0630
     55 C           2.0707    7.2299    1.0281 C.2     1  UNL1       -0.0623
     56 H           1.7639    8.0187    0.3575 H       1  UNL1        0.0616
@<TRIPOS>BOND
     1    54    53    1
     2    56    55    1
     3    53    55    1
     4    53    20    2
     5    55    22    2
     6    40    39    1
     7    41    39    1
     8    42    39    1
     9    21    20    1
    10    20     3    1
    11    39    33    1
    12    22    23    1
    13    22    19    1
    14     3    19    1
    15    19    16    1
    16    27    26    1
    17    33    34    1
    18    33    25    1
    19    33    35    1
    20    18    16    1
    21    26    25   ar
    22    26    28   ar
    23    36    35    1
    24    29    28    1
    25    16    17    1
    26    16     2    1
    27    25    24   ar
    28    38    35    1
    29    35    37    1
    30    28    30   ar
    31     2    11    1
    32    48    45    1
    33    24     1    1
    34    24    32   ar
    35    30    32   ar
    36    30    31    1
    37     1     8    1
    38    15    12    1
    39    32    43    1
    40    46    45    1
    41    45    43    1
    42    45    47    1
    43    11    12    1
    44    11     9    1
    45    12    13    1
    46    12    14    1
    47     8     9    2
    48     8     4    1
    49    43    44    1
    50    43    49    1
    51     9    10    1
    52     5     4    1
    53     4     6    1
    54     4     7    1
    55    52    49    1
    56    49    50    1
    57    49    51    1
