@<TRIPOS>MOLECULE
1,2,3
 55 56 0 0 0
SMALL
GASTEIGER

@<TRIPOS>ATOM
      1 N          -0.1729    3.1770    2.6202 N.pl3   1  UNL1       -0.2371
      2 N           0.0224    4.0427    5.5209 N.pl3   1  UNL1       -0.2256
      3 N           1.9421    6.1070    5.2971 N.pl3   1  UNL1       -0.2214
      4 C          -1.8463    1.3776    2.3454 C.3     1  UNL1       -0.0359
      5 H          -1.8630    0.4001    2.8237 H       1  UNL1        0.0255
      6 H          -1.4117    1.2799    1.3540 H       1  UNL1        0.0255
      7 H          -2.8784    1.7122    2.2357 H       1  UNL1        0.0255
      8 C          -1.0736    2.3691    3.1940 C.3     1  UNL1        0.0968
      9 C          -1.3980    2.3606    4.5407 C.2     1  UNL1       -0.0383
     10 H          -2.1614    1.6395    4.8032 H       1  UNL1        0.0610
     11 C          -0.8971    3.1017    5.6368 C.2     1  UNL1        0.0257
     12 C          -1.4782    2.7379    6.9902 C.3     1  UNL1       -0.0249
     13 H          -0.7042    2.3334    7.6445 H       1  UNL1        0.0290
     14 H          -2.2583    1.9894    6.8853 H       1  UNL1        0.0290
     15 H          -1.9073    3.6128    7.4801 H       1  UNL1        0.0290
     16 C           0.4978    4.7143    6.6215 C.2     1  UNL1        0.0399
     17 H           0.1384    4.4617    7.6143 H       1  UNL1        0.0821
     18 C           1.4423    5.7184    6.5344 C.2     1  UNL1        0.0687
     19 C           2.8716    7.0699    5.2683 C.2     1  UNL1        0.0174
     20 H           3.2362    7.3318    4.2788 H       1  UNL1        0.0802
     21 C           1.9216    6.3728    7.7183 C.2     1  UNL1       -0.0374
     22 H           1.5154    6.0600    8.6703 H       1  UNL1        0.0637
     23 C           3.3634    7.7176    6.3727 C.2     1  UNL1       -0.0459
     24 H           4.1114    8.4875    6.2763 H       1  UNL1        0.0631
     25 C           2.8595    7.3495    7.6407 C.2     1  UNL1       -0.0587
     26 H           3.2249    7.8436    8.5301 H       1  UNL1        0.0619
     27 C           0.1078    3.0337    1.2375 C.ar    1  UNL1        0.0557
     28 C          -0.6399    3.7443    0.2828 C.ar    1  UNL1       -0.0219
     29 C          -0.2706    3.6797   -1.0525 C.ar    1  UNL1       -0.0565
     30 H          -0.8296    4.2379   -1.7890 H       1  UNL1        0.0621
     31 C           0.7960    2.9017   -1.4599 C.ar    1  UNL1       -0.0611
     32 H           1.0709    2.8607   -2.5035 H       1  UNL1        0.0618
     33 C           1.4975    2.1623   -0.5268 C.ar    1  UNL1       -0.0565
     34 H           2.3103    1.5323   -0.8567 H       1  UNL1        0.0621
     35 C           1.1718    2.2127    0.8203 C.ar    1  UNL1       -0.0219
     36 C          -1.8394    4.5666    0.6980 C.3     1  UNL1       -0.0197
     37 H          -2.0225    4.3877    1.7621 H       1  UNL1        0.0344
     38 C          -1.5604    6.0589    0.5117 C.3     1  UNL1       -0.0586
     39 H          -0.6972    6.3520    1.1089 H       1  UNL1        0.0235
     40 H          -2.4220    6.6469    0.8237 H       1  UNL1        0.0235
     41 H          -1.3527    6.2858   -0.5314 H       1  UNL1        0.0235
     42 C          -3.0933    4.1501   -0.0753 C.3     1  UNL1       -0.0586
     43 H          -3.0047    4.4003   -1.1294 H       1  UNL1        0.0235
     44 H          -3.9663    4.6640    0.3226 H       1  UNL1        0.0235
     45 H          -3.2561    3.0780    0.0079 H       1  UNL1        0.0235
     46 C           1.9261    1.3575    1.8156 C.3     1  UNL1       -0.0197
     47 H           1.5810    1.6191    2.8229 H       1  UNL1        0.0344
     48 C           1.6202   -0.1237    1.5713 C.3     1  UNL1       -0.0586
     49 H           0.5518   -0.3109    1.6423 H       1  UNL1        0.0235
     50 H           2.1268   -0.7409    2.3110 H       1  UNL1        0.0235
     51 H           1.9558   -0.4278    0.5822 H       1  UNL1        0.0235
     52 C           3.4349    1.6039    1.7580 C.3     1  UNL1       -0.0586
     53 H           3.8379    1.3583    0.7784 H       1  UNL1        0.0235
     54 H           3.9396    0.9823    2.4957 H       1  UNL1        0.0235
     55 H           3.6544    2.6466    1.9756 H       1  UNL1        0.0235
@<TRIPOS>BOND
     1    32    31    1
     2    30    29    1
     3    31    29   ar
     4    31    33   ar
     5    43    42    1
     6    29    28   ar
     7    34    33    1
     8    41    38    1
     9    33    35   ar
    10    42    45    1
    11    42    44    1
    12    42    36    1
    13    28    36    1
    14    28    27   ar
    15    38    36    1
    16    38    40    1
    17    38    39    1
    18    51    48    1
    19    36    37    1
    20    53    52    1
    21    35    27   ar
    22    35    46    1
    23    27     1    1
    24     6     4    1
    25    48    49    1
    26    48    46    1
    27    48    50    1
    28    52    46    1
    29    52    55    1
    30    52    54    1
    31    46    47    1
    32     7     4    1
    33     4     5    1
    34     4     8    1
    35     1     8    1
    36     8     9    1
    37    20    19    1
    38     9    10    1
    39     9    11    2
    40    19     3    1
    41    19    23    2
    42     3    18    1
    43     2    11    1
    44     2    16    1
    45    11    12    1
    46    24    23    1
    47    23    25    1
    48    18    16    2
    49    18    21    1
    50    16    17    1
    51    14    12    1
    52    12    15    1
    53    12    13    1
    54    25    21    2
    55    25    26    1
    56    21    22    1
