@<TRIPOS>MOLECULE
1,2,3
 56 57 0 0 0
SMALL
GASTEIGER

@<TRIPOS>ATOM
      1 N           1.9885    0.8412    4.7473 N.pl3   1  UNL1       -0.2371
      2 N           0.9700    3.0501    6.2615 N.pl3   1  UNL1       -0.2529
      3 N           1.0424    5.0132    4.2998 N.pl3   1  UNL1       -0.2434
      4 C           1.7855   -1.3100    5.9318 C.3     1  UNL1       -0.0359
      5 H           1.5197   -1.7388    4.9684 H       1  UNL1        0.0255
      6 H           1.1172   -1.6982    6.6963 H       1  UNL1        0.0255
      7 H           2.7979   -1.6326    6.1771 H       1  UNL1        0.0255
      8 C           1.7436    0.2041    5.8818 C.3     1  UNL1        0.0968
      9 C           1.4326    0.8531    7.0786 C.2     1  UNL1       -0.0387
     10 H           1.3847    0.2217    7.9543 H       1  UNL1        0.0610
     11 C           0.9960    2.1744    7.2482 C.2     1  UNL1        0.0205
     12 C           0.4330    2.5189    8.6076 C.3     1  UNL1       -0.0253
     13 H          -0.6469    2.6608    8.5510 H       1  UNL1        0.0290
     14 H           0.8782    3.4410    8.9776 H       1  UNL1        0.0290
     15 H           0.6297    1.7265    9.3233 H       1  UNL1        0.0290
     16 C           0.2497    4.2868    6.4857 C.3     1  UNL1        0.0601
     17 H           0.7884    4.9291    7.2058 H       1  UNL1        0.0507
     18 H          -0.7512    4.0980    6.9013 H       1  UNL1        0.0507
     19 C           0.0881    5.0979    5.2263 C.3     1  UNL1        0.1164
     20 C           0.9617    5.7945    3.2244 C.2     1  UNL1        0.0125
     21 H           1.7766    5.7050    2.5183 H       1  UNL1        0.0797
     22 C          -1.0033    5.9527    5.0799 C.2     1  UNL1       -0.0551
     23 H          -1.7648    5.9916    5.8441 H       1  UNL1        0.0595
     24 C           1.8140    0.1579    3.5175 C.ar    1  UNL1        0.0557
     25 C           0.5291    0.1696    2.9410 C.ar    1  UNL1       -0.0219
     26 C           0.3419   -0.4494    1.7148 C.ar    1  UNL1       -0.0565
     27 H          -0.6384   -0.4610    1.2642 H       1  UNL1        0.0621
     28 C           1.3947   -1.0540    1.0523 C.ar    1  UNL1       -0.0611
     29 H           1.2328   -1.5194    0.0911 H       1  UNL1        0.0618
     30 C           2.6498   -1.0724    1.6288 C.ar    1  UNL1       -0.0565
     31 H           3.4621   -1.5623    1.1133 H       1  UNL1        0.0621
     32 C           2.8736   -0.4913    2.8690 C.ar    1  UNL1       -0.0219
     33 C          -0.6270    0.8233    3.6698 C.3     1  UNL1       -0.0197
     34 H          -0.2108    1.5725    4.3568 H       1  UNL1        0.0344
     35 C          -1.3811   -0.2216    4.5001 C.3     1  UNL1       -0.0586
     36 H          -0.7403   -0.6368    5.2711 H       1  UNL1        0.0235
     37 H          -1.7297   -1.0320    3.8623 H       1  UNL1        0.0235
     38 H          -2.2437    0.2348    4.9815 H       1  UNL1        0.0235
     39 C          -1.6099    1.5298    2.7339 C.3     1  UNL1       -0.0586
     40 H          -2.2028    0.8132    2.1700 H       1  UNL1        0.0235
     41 H          -1.0870    2.1764    2.0358 H       1  UNL1        0.0235
     42 H          -2.2955    2.1395    3.3198 H       1  UNL1        0.0235
     43 C           4.2339   -0.5802    3.5223 C.3     1  UNL1       -0.0197
     44 H           4.1353   -0.2285    4.5540 H       1  UNL1        0.0344
     45 C           4.7416   -2.0248    3.5691 C.3     1  UNL1       -0.0586
     46 H           4.9795   -2.3910    2.5738 H       1  UNL1        0.0235
     47 H           3.9940   -2.6839    4.0052 H       1  UNL1        0.0235
     48 H           5.6453   -2.0804    4.1727 H       1  UNL1        0.0235
     49 C           5.2439    0.3187    2.8047 C.3     1  UNL1       -0.0586
     50 H           4.8926    1.3526    2.7817 H       1  UNL1        0.0235
     51 H           5.3886   -0.0155    1.7798 H       1  UNL1        0.0235
     52 H           6.2060    0.2796    3.3131 H       1  UNL1        0.0235
     53 C          -0.0811    6.6766    3.0071 C.2     1  UNL1       -0.0466
     54 H          -0.1027    7.2909    2.1213 H       1  UNL1        0.0630
     55 C          -1.0931    6.7492    3.9540 C.2     1  UNL1       -0.0623
     56 H          -1.9302    7.4179    3.8192 H       1  UNL1        0.0616
@<TRIPOS>BOND
     1    29    28    1
     2    28    30   ar
     3    28    26   ar
     4    31    30    1
     5    27    26    1
     6    30    32   ar
     7    26    25   ar
     8    51    49    1
     9    41    39    1
    10    54    53    1
    11    40    39    1
    12    21    20    1
    13    46    45    1
    14    39    42    1
    15    39    33    1
    16    50    49    1
    17    49    52    1
    18    49    43    1
    19    32    24   ar
    20    32    43    1
    21    25    24   ar
    22    25    33    1
    23    53    20    2
    24    53    55    1
    25    20     3    1
    26    24     1    1
    27    43    45    1
    28    43    44    1
    29    45    47    1
    30    45    48    1
    31    33    34    1
    32    33    35    1
    33    56    55    1
    34    37    35    1
    35    55    22    2
    36     3    19    1
    37    35    38    1
    38    35    36    1
    39     1     8    1
    40     5     4    1
    41    22    19    1
    42    22    23    1
    43    19    16    1
    44     8     4    1
    45     8     9    1
    46     4     7    1
    47     4     6    1
    48     2    16    1
    49     2    11    1
    50    16    18    1
    51    16    17    1
    52     9    11    2
    53     9    10    1
    54    11    12    1
    55    13    12    1
    56    12    14    1
    57    12    15    1
