@<TRIPOS>MOLECULE
1,2,3
 56 57 0 0 0
SMALL
GASTEIGER

@<TRIPOS>ATOM
      1 N           2.7849    7.3785   12.4883 N.pl3   1  UNL1       -0.2412
      2 N           5.3862    7.6736   11.3983 N.3     1  UNL1       -0.2292
      3 N           6.1281    5.1127   10.7488 N.pl3   1  UNL1       -0.2437
      4 C           1.8978    9.5081   13.3928 C.3     1  UNL1       -0.0395
      5 H           0.9274    9.0330   13.2766 H       1  UNL1        0.0252
      6 H           1.8909   10.4649   12.8755 H       1  UNL1        0.0252
      7 H           2.0727    9.7103   14.4497 H       1  UNL1        0.0252
      8 C           3.0140    8.6284   12.8679 C.3     1  UNL1        0.0788
      9 C           4.2609    9.2528   12.7818 C.3     1  UNL1        0.0119
     10 H           4.3203   10.2357   13.2262 H       1  UNL1        0.0346
     11 C           5.3280    8.8677   11.9627 C.3     1  UNL1        0.0588
     12 C           6.3341    9.9509   11.6419 C.3     1  UNL1       -0.0432
     13 H           7.3499    9.6086   11.8351 H       1  UNL1        0.0249
     14 H           6.1520   10.8324   12.2490 H       1  UNL1        0.0249
     15 H           6.2639   10.2378   10.5925 H       1  UNL1        0.0249
     16 C           6.2955    7.5064   10.2850 C.3     1  UNL1        0.0437
     17 H           7.2746    7.9729   10.4696 H       1  UNL1        0.0467
     18 H           5.8734    7.9973    9.3917 H       1  UNL1        0.0467
     19 C           6.5673    6.0679    9.9335 C.3     1  UNL1        0.1129
     20 C           6.3957    3.8415   10.4472 C.2     1  UNL1        0.0125
     21 H           5.9855    3.1064   11.1259 H       1  UNL1        0.0797
     22 C           7.2968    5.7755    8.7803 C.2     1  UNL1       -0.0554
     23 H           7.6331    6.5772    8.1401 H       1  UNL1        0.0595
     24 C           1.4700    7.0313   12.0907 C.ar    1  UNL1        0.0553
     25 C           0.9732    7.5414   10.8733 C.ar    1  UNL1       -0.0220
     26 C          -0.2890    7.1549   10.4483 C.ar    1  UNL1       -0.0565
     27 H          -0.6743    7.5335    9.5134 H       1  UNL1        0.0621
     28 C          -1.0760    6.3129   11.2084 C.ar    1  UNL1       -0.0611
     29 H          -2.0627    6.0351   10.8683 H       1  UNL1        0.0618
     30 C          -0.5980    5.8411   12.4155 C.ar    1  UNL1       -0.0565
     31 H          -1.2307    5.2081   13.0174 H       1  UNL1        0.0621
     32 C           0.6707    6.1765   12.8680 C.ar    1  UNL1       -0.0220
     33 C           1.7475    8.5370   10.0329 C.3     1  UNL1       -0.0197
     34 H           2.7082    8.7358   10.5147 H       1  UNL1        0.0344
     35 C           0.9734    9.8570    9.9323 C.3     1  UNL1       -0.0586
     36 H           0.0799    9.7334    9.3248 H       1  UNL1        0.0235
     37 H           1.5947   10.6221    9.4710 H       1  UNL1        0.0235
     38 H           0.6673   10.2062   10.9143 H       1  UNL1        0.0235
     39 C           2.0362    8.0133    8.6238 C.3     1  UNL1       -0.0586
     40 H           2.6798    7.1401    8.6622 H       1  UNL1        0.0235
     41 H           2.5366    8.7857    8.0418 H       1  UNL1        0.0235
     42 H           1.1175    7.7429    8.1091 H       1  UNL1        0.0235
     43 C           1.1437    5.6872   14.2187 C.3     1  UNL1       -0.0197
     44 H           2.2489    5.7115   14.2231 H       1  UNL1        0.0344
     45 C           0.7246    4.2494   14.5174 C.3     1  UNL1       -0.0586
     46 H          -0.3501    4.1665   14.6622 H       1  UNL1        0.0235
     47 H           1.2073    3.9141   15.4330 H       1  UNL1        0.0235
     48 H           1.0327    3.6003   13.7059 H       1  UNL1        0.0235
     49 C           0.6078    6.6102   15.3195 C.3     1  UNL1       -0.0586
     50 H           0.9724    7.6250   15.1977 H       1  UNL1        0.0235
     51 H           0.9185    6.2510   16.2979 H       1  UNL1        0.0235
     52 H          -0.4805    6.6297   15.2894 H       1  UNL1        0.0235
     53 C           7.1230    3.4673    9.3326 C.2     1  UNL1       -0.0466
     54 H           7.3225    2.4264    9.1347 H       1  UNL1        0.0630
     55 C           7.5847    4.4596    8.4780 C.2     1  UNL1       -0.0623
     56 H           8.1534    4.2094    7.5948 H       1  UNL1        0.0616
@<TRIPOS>BOND
     1    56    55    1
     2    41    39    1
     3    42    39    1
     4    23    22    1
     5    55    22    2
     6    55    53    1
     7    39    40    1
     8    39    33    1
     9    22    19    1
    10    54    53    1
    11    36    35    1
    12    53    20    2
    13    18    16    1
    14    37    35    1
    15    27    26    1
    16    35    33    1
    17    35    38    1
    18    19    16    1
    19    19     3    1
    20    33    34    1
    21    33    25    1
    22    16    17    1
    23    16     2    1
    24    20     3    1
    25    20    21    1
    26    26    25   ar
    27    26    28   ar
    28    15    12    1
    29    29    28    1
    30    25    24   ar
    31    28    30   ar
    32     2    11    1
    33    12    13    1
    34    12    11    1
    35    12    14    1
    36    11     9    1
    37    24     1    1
    38    24    32   ar
    39    30    32   ar
    40    30    31    1
    41     1     8    1
    42     9     8    1
    43     9    10    1
    44     8     4    1
    45    32    43    1
    46     6     4    1
    47     5     4    1
    48     4     7    1
    49    48    45    1
    50    43    44    1
    51    43    45    1
    52    43    49    1
    53    45    46    1
    54    45    47    1
    55    50    49    1
    56    52    49    1
    57    49    51    1
