@<TRIPOS>MOLECULE
1,2,3
 25 26 0 0 0
SMALL
GASTEIGER

@<TRIPOS>ATOM
      1 N           0.2909    1.9253    5.7532 N.pl3   1  UNL1       -0.2214
      2 N           1.5359   -0.2183    5.4829 N.pl3   1  UNL1       -0.2266
      3 N           2.4684   -0.0998    3.1740 N.pl3   1  UNL1       -0.2214
      4 C          -0.3705    3.0777    5.8029 C.2     1  UNL1        0.0174
      5 H          -0.3179    3.6799    4.9053 H       1  UNL1        0.0802
      6 C          -1.0809    3.5063    6.9082 C.2     1  UNL1       -0.0459
      7 H          -1.5949    4.4536    6.8889 H       1  UNL1        0.0631
      8 C          -1.1144    2.6905    8.0421 C.2     1  UNL1       -0.0587
      9 H          -1.6583    3.0009    8.9219 H       1  UNL1        0.0619
     10 C          -0.4473    1.4912    8.0155 C.2     1  UNL1       -0.0374
     11 H          -0.4468    0.8251    8.8639 H       1  UNL1        0.0637
     12 C           0.2564    1.1123    6.8534 C.2     1  UNL1        0.0687
     13 C           0.9663   -0.0811    6.6796 C.2     1  UNL1        0.0397
     14 H           1.0430   -0.8410    7.4477 H       1  UNL1        0.0821
     15 C           2.2378   -1.2968    5.1370 C.2     1  UNL1        0.0397
     16 H           2.3840   -2.1326    5.8102 H       1  UNL1        0.0821
     17 C           2.7763   -1.2513    3.8461 C.2     1  UNL1        0.0687
     18 C           3.5677   -2.2531    3.2468 C.2     1  UNL1       -0.0374
     19 H           3.7858   -3.1483    3.8076 H       1  UNL1        0.0637
     20 C           4.0419   -2.0689    1.9719 C.2     1  UNL1       -0.0587
     21 H           4.6487   -2.8232    1.4936 H       1  UNL1        0.0619
     22 C           3.7285   -0.8843    1.3001 C.2     1  UNL1       -0.0459
     23 H           4.0847   -0.7012    0.2994 H       1  UNL1        0.0631
     24 C           2.9465    0.0564    1.9431 C.2     1  UNL1        0.0174
     25 H           2.6799    0.9865    1.4584 H       1  UNL1        0.0802
@<TRIPOS>BOND
     1    23    22    1
     2    22    24    2
     3    22    20    1
     4    25    24    1
     5    21    20    1
     6    24     3    1
     7    20    18    2
     8     3    17    1
     9    18    19    1
    10    18    17    1
    11    17    15    2
    12     5     4    1
    13    15     2    1
    14    15    16    1
    15     2    13    1
    16     1     4    1
    17     1    12    1
    18     4     6    2
    19    13    12    2
    20    13    14    1
    21    12    10    1
    22     7     6    1
    23     6     8    1
    24    10     8    2
    25    10    11    1
    26     8     9    1
