@<TRIPOS>MOLECULE
1,2,3
 57 60 0 0 0
SMALL
GASTEIGER

@<TRIPOS>ATOM
      1 N           2.8764    8.3528    8.2674 N.3     1  UNL1       -0.1934
      2 N           1.6207    9.3695   10.6944 N.pl3   1  UNL1       -0.2142
      3 N           0.2542    7.0362   11.7874 N.3     1  UNL1       -0.1934
      4 O           4.2353    9.9155    7.4177 O.3     1  UNL1       -0.3477
      5 O          -1.0336    7.6617   13.5081 O.3     1  UNL1       -0.3477
      6 C           3.0096    7.9996    6.8549 C.3     1  UNL1        0.0545
      7 H           2.0103    7.9943    6.4051 H       1  UNL1        0.0503
      8 C           3.8674    9.1486    6.2823 C.3     1  UNL1        0.0677
      9 H           4.7767    8.8105    5.7821 H       1  UNL1        0.0577
     10 H           3.3031    9.7911    5.5994 H       1  UNL1        0.0577
     11 C           3.5880    9.4034    8.4826 C.3     1  UNL1        0.2127
     12 C           3.6131    6.5917    6.6847 C.3     1  UNL1       -0.0275
     13 H           2.9772    5.9220    7.2793 H       1  UNL1        0.0312
     14 C           5.0371    6.4938    7.2278 C.3     1  UNL1       -0.0611
     15 H           5.3568    5.4545    7.2363 H       1  UNL1        0.0233
     16 H           5.0784    6.8727    8.2467 H       1  UNL1        0.0233
     17 H           5.7403    7.0529    6.6141 H       1  UNL1        0.0233
     18 C           3.5482    6.1609    5.2213 C.3     1  UNL1       -0.0611
     19 H           4.1426    6.8209    4.5930 H       1  UNL1        0.0233
     20 H           2.5223    6.1773    4.8613 H       1  UNL1        0.0233
     21 H           3.9334    5.1502    5.1130 H       1  UNL1        0.0233
     22 C           3.7661   10.0957    9.7371 C.ar    1  UNL1        0.0278
     23 C           4.9375   10.8493    9.8928 C.ar    1  UNL1       -0.0525
     24 H           5.6595   10.8360    9.0903 H       1  UNL1        0.0622
     25 C           5.1812   11.5746   11.0333 C.ar    1  UNL1       -0.0612
     26 H           6.0975   12.1334   11.1422 H       1  UNL1        0.0618
     27 C           4.2265   11.5781   12.0483 C.ar    1  UNL1       -0.0599
     28 H           4.4049   12.1399   12.9539 H       1  UNL1        0.0618
     29 C           3.0606   10.8709   11.9066 C.ar    1  UNL1       -0.0383
     30 H           2.3267   10.8748   12.7008 H       1  UNL1        0.0637
     31 C           2.7844   10.0910   10.7607 C.ar    1  UNL1        0.0611
     32 C           0.5008   10.0030   11.1672 C.ar    1  UNL1        0.0611
     33 C           0.2940   11.3702   10.8748 C.ar    1  UNL1       -0.0383
     34 H           1.0445   11.8766   10.2834 H       1  UNL1        0.0637
     35 C          -0.8270   12.0457   11.2828 C.ar    1  UNL1       -0.0599
     36 H          -0.9537   13.0843   11.0132 H       1  UNL1        0.0618
     37 C          -1.8025   11.4003   12.0402 C.ar    1  UNL1       -0.0612
     38 H          -2.6834   11.9316   12.3649 H       1  UNL1        0.0618
     39 C          -1.6250   10.0782   12.3668 C.ar    1  UNL1       -0.0525
     40 H          -2.3642    9.5584   12.9575 H       1  UNL1        0.0622
     41 C          -0.5016    9.3590   11.9367 C.ar    1  UNL1        0.0278
     42 C          -0.3916    7.9856   12.3687 C.3     1  UNL1        0.2127
     43 C          -0.7369    6.3047   13.7970 C.3     1  UNL1        0.0677
     44 H          -1.6756    5.7681   13.9463 H       1  UNL1        0.0577
     45 H          -0.1545    6.2679   14.7229 H       1  UNL1        0.0577
     46 C           0.0692    5.8176   12.5735 C.3     1  UNL1        0.0545
     47 H           1.0561    5.4490   12.8755 H       1  UNL1        0.0503
     48 C          -0.6144    4.7142   11.7425 C.3     1  UNL1       -0.0275
     49 H          -0.0038    4.6037   10.8362 H       1  UNL1        0.0312
     50 C          -2.0298    5.0944   11.3132 C.3     1  UNL1       -0.0611
     51 H          -2.4047    4.3673   10.5969 H       1  UNL1        0.0233
     52 H          -2.0290    6.0731   10.8385 H       1  UNL1        0.0233
     53 H          -2.7147    5.1119   12.1584 H       1  UNL1        0.0233
     54 C          -0.6042    3.3922   12.5065 C.3     1  UNL1       -0.0611
     55 H           0.4136    3.0984   12.7520 H       1  UNL1        0.0233
     56 H          -1.0506    2.6080   11.9003 H       1  UNL1        0.0233
     57 H          -1.1709    3.4713   13.4319 H       1  UNL1        0.0233
@<TRIPOS>BOND
     1    19    18    1
     2    20    18    1
     3    21    18    1
     4    18    12    1
     5    10     8    1
     6     9     8    1
     7     8     6    1
     8     8     4    1
     9     7     6    1
    10    17    14    1
    11    12     6    1
    12    12    14    1
    13    12    13    1
    14     6     1    1
    15    14    15    1
    16    14    16    1
    17     4    11    1
    18     1    11    1
    19    11    22    1
    20    24    23    1
    21    22    23   ar
    22    22    31   ar
    23    23    25   ar
    24    34    33    1
    25    51    50    1
    26     2    31    1
    27     2    32    1
    28    31    29   ar
    29    49    48    1
    30    52    50    1
    31    33    32   ar
    32    33    35   ar
    33    36    35    1
    34    25    26    1
    35    25    27   ar
    36    32    41   ar
    37    35    37   ar
    38    50    48    1
    39    50    53    1
    40    48    54    1
    41    48    46    1
    42     3    42    1
    43     3    46    1
    44    56    54    1
    45    29    27   ar
    46    29    30    1
    47    41    39   ar
    48    41    42    1
    49    37    38    1
    50    37    39   ar
    51    27    28    1
    52    39    40    1
    53    42     5    1
    54    54    55    1
    55    54    57    1
    56    46    47    1
    57    46    43    1
    58     5    43    1
    59    43    44    1
    60    43    45    1
