@<TRIPOS>MOLECULE
1,2,3
 69 69 0 0 0
SMALL
GASTEIGER

@<TRIPOS>ATOM
      1 N           2.6989   17.5805    9.0407 N.pl3   1  UNL1       -0.2193
      2 N           2.2399   15.3382   11.0767 N.3     1  UNL1       -0.2264
      3 N           1.9477   13.0156    9.4312 N.3     1  UNL1       -0.3029
      4 N          -0.2706   15.0478    9.0898 N.3     1  UNL1       -0.3071
      5 C           2.2674   19.7818   10.0931 C.3     1  UNL1       -0.0249
      6 H           2.6267   20.2003    9.1578 H       1  UNL1        0.0290
      7 H           2.8451   20.2042   10.9130 H       1  UNL1        0.0290
      8 H           1.2306   20.0841   10.2395 H       1  UNL1        0.0290
      9 C           2.3530   18.2656   10.1135 C.2     1  UNL1        0.0261
     10 C           2.0223   17.7165   11.3589 C.2     1  UNL1       -0.0422
     11 H           1.7662   18.4591   12.1024 H       1  UNL1        0.0607
     12 C           2.0019   16.3994   11.8272 C.3     1  UNL1        0.0764
     13 C           1.6761   16.2409   13.2977 C.3     1  UNL1       -0.0396
     14 H           0.7890   15.6222   13.4383 H       1  UNL1        0.0252
     15 H           1.4969   17.2047   13.7641 H       1  UNL1        0.0252
     16 H           2.5015   15.7565   13.8187 H       1  UNL1        0.0252
     17 C           2.1853   14.0435   11.7326 C.3     1  UNL1        0.0277
     18 H           1.1949   13.8645   12.1775 H       1  UNL1        0.0454
     19 H           2.9021   13.9945   12.5635 H       1  UNL1        0.0454
     20 C           2.5365   12.9019   10.7732 C.3     1  UNL1        0.0128
     21 H           3.6231   12.8916   10.6443 H       1  UNL1        0.0439
     22 H           2.2397   11.9467   11.2424 H       1  UNL1        0.0439
     23 C           0.5129   12.6967    9.4232 C.3     1  UNL1        0.0114
     24 H           0.3171   11.8167   10.0602 H       1  UNL1        0.0439
     25 H           0.2483   12.4271    8.3980 H       1  UNL1        0.0439
     26 C          -0.4223   13.8213    9.8709 C.3     1  UNL1        0.0111
     27 H          -1.4569   13.4376    9.7934 H       1  UNL1        0.0439
     28 H          -0.2501   14.0620   10.9178 H       1  UNL1        0.0439
     29 C           2.6137   12.0205    8.5794 C.3     1  UNL1       -0.0127
     30 H           2.4262   11.0014    8.9488 H       1  UNL1        0.0391
     31 H           3.6897   12.1904    8.5739 H       1  UNL1        0.0391
     32 H           2.2453   12.0932    7.5564 H       1  UNL1        0.0391
     33 C           3.1267   18.3224    7.8994 C.ar    1  UNL1        0.0601
     34 C           2.2118   18.7205    6.9098 C.ar    1  UNL1       -0.0216
     35 C           2.6347   19.5608    5.8893 C.ar    1  UNL1       -0.0565
     36 H           1.9267   19.8967    5.1469 H       1  UNL1        0.0621
     37 C           3.9416   19.9979    5.8177 C.ar    1  UNL1       -0.0611
     38 H           4.2493   20.6737    5.0335 H       1  UNL1        0.0618
     39 C           4.8557   19.5475    6.7493 C.ar    1  UNL1       -0.0565
     40 H           5.8824   19.8703    6.6758 H       1  UNL1        0.0621
     41 C           4.4762   18.7051    7.7850 C.ar    1  UNL1       -0.0216
     42 C           5.5254   18.2068    8.7540 C.3     1  UNL1       -0.0197
     43 H           5.1186   17.3250    9.2691 H       1  UNL1        0.0344
     44 C           6.7930   17.7816    8.0051 C.3     1  UNL1       -0.0586
     45 H           6.5346   17.2030    7.1216 H       1  UNL1        0.0235
     46 H           7.4228   17.1663    8.6433 H       1  UNL1        0.0235
     47 H           7.3795   18.6434    7.6944 H       1  UNL1        0.0235
     48 C           5.8706   19.2699    9.7999 C.3     1  UNL1       -0.0586
     49 H           6.1756   20.1969    9.3171 H       1  UNL1        0.0235
     50 H           6.6877   18.9225   10.4285 H       1  UNL1        0.0235
     51 H           5.0145   19.4760   10.4350 H       1  UNL1        0.0235
     52 C           0.7744   18.2537    6.9318 C.3     1  UNL1       -0.0197
     53 H           0.6953   17.4811    7.7080 H       1  UNL1        0.0344
     54 C          -0.1783   19.4047    7.2664 C.3     1  UNL1       -0.0586
     55 H           0.0578   19.8340    8.2364 H       1  UNL1        0.0235
     56 H          -1.2086   19.0525    7.2863 H       1  UNL1        0.0235
     57 H          -0.1029   20.1914    6.5190 H       1  UNL1        0.0235
     58 C           0.3912   17.6228    5.5901 C.3     1  UNL1       -0.0586
     59 H           0.4849   18.3365    4.7762 H       1  UNL1        0.0235
     60 H          -0.6428   17.2819    5.6104 H       1  UNL1        0.0235
     61 H           1.0357   16.7729    5.3826 H       1  UNL1        0.0235
     62 C          -0.8836   16.1551    9.8195 C.3     1  UNL1       -0.0130
     63 H          -0.8287   17.0626    9.2225 H       1  UNL1        0.0391
     64 H          -0.3517   16.3303   10.7529 H       1  UNL1        0.0391
     65 H          -1.9433   15.9536   10.0441 H       1  UNL1        0.0391
     66 C          -0.9714   14.8978    7.8165 C.3     1  UNL1       -0.0130
     67 H          -2.0484   14.7270    7.9755 H       1  UNL1        0.0391
     68 H          -0.5663   14.0628    7.2519 H       1  UNL1        0.0391
     69 H          -0.8439   15.7975    7.2231 H       1  UNL1        0.0391
@<TRIPOS>BOND
     1    59    58    1
     2    38    37    1
     3    36    35    1
     4    61    58    1
     5    58    60    1
     6    58    52    1
     7    37    35   ar
     8    37    39   ar
     9    35    34   ar
    10    57    54    1
    11    40    39    1
    12    39    41   ar
    13    34    52    1
    14    34    33   ar
    15    52    54    1
    16    52    53    1
    17    45    44    1
    18    69    66    1
    19    68    66    1
    20    54    56    1
    21    54    55    1
    22    32    29    1
    23    47    44    1
    24    41    33   ar
    25    41    42    1
    26    66    67    1
    27    66     4    1
    28    33     1    1
    29    44    46    1
    30    44    42    1
    31    25    23    1
    32    31    29    1
    33    29    30    1
    34    29     3    1
    35    42    43    1
    36    42    48    1
    37     1     9    1
    38     4    62    1
    39     4    26    1
    40     6     5    1
    41    63    62    1
    42    49    48    1
    43    23     3    1
    44    23    26    1
    45    23    24    1
    46     3    20    1
    47    27    26    1
    48    48    50    1
    49    48    51    1
    50    62    65    1
    51    62    64    1
    52    26    28    1
    53     5     9    1
    54     5     8    1
    55     5     7    1
    56     9    10    2
    57    21    20    1
    58    20    22    1
    59    20    17    1
    60     2    17    1
    61     2    12    1
    62    10    12    1
    63    10    11    1
    64    17    18    1
    65    17    19    1
    66    12    13    1
    67    13    14    1
    68    13    15    1
    69    13    16    1
