@<TRIPOS>MOLECULE
1,2,3
 69 69 0 0 0
SMALL
GASTEIGER

@<TRIPOS>ATOM
      1 N          -0.6016   16.7118   17.0382 N.pl3   1  UNL1       -0.2193
      2 N           1.3062   15.9141   19.0507 N.3     1  UNL1       -0.2264
      3 N           0.9668   13.1143   19.4246 N.3     1  UNL1       -0.3029
      4 N           1.1425   13.0821   23.1808 N.3     1  UNL1       -0.3071
      5 C          -1.0097   19.1461   17.0024 C.3     1  UNL1       -0.0249
      6 H          -0.2250   19.8699   16.7883 H       1  UNL1        0.0290
      7 H          -1.6966   19.6023   17.7139 H       1  UNL1        0.0290
      8 H          -1.5436   18.9284   16.0810 H       1  UNL1        0.0290
      9 C          -0.4198   17.8889   17.6089 C.2     1  UNL1        0.0261
     10 C           0.3364   18.0845   18.7668 C.2     1  UNL1       -0.0422
     11 H           0.3327   19.0931   19.1548 H       1  UNL1        0.0607
     12 C           1.2163   17.1893   19.3863 C.3     1  UNL1        0.0764
     13 C           2.1231   17.7777   20.4422 C.3     1  UNL1       -0.0396
     14 H           2.0091   17.2474   21.3872 H       1  UNL1        0.0252
     15 H           1.8966   18.8270   20.6061 H       1  UNL1        0.0252
     16 H           3.1660   17.6944   20.1367 H       1  UNL1        0.0252
     17 C           2.3819   15.1459   19.6559 C.3     1  UNL1        0.0277
     18 H           2.3443   15.2010   20.7538 H       1  UNL1        0.0454
     19 H           3.3607   15.5420   19.3425 H       1  UNL1        0.0454
     20 C           2.3068   13.6833   19.2231 C.3     1  UNL1        0.0128
     21 H           2.5340   13.6059   18.1513 H       1  UNL1        0.0439
     22 H           3.0787   13.1110   19.7634 H       1  UNL1        0.0439
     23 C           0.4944   13.1757   20.8176 C.3     1  UNL1        0.0114
     24 H           0.4182   14.2245   21.1121 H       1  UNL1        0.0439
     25 H          -0.5154   12.7595   20.8262 H       1  UNL1        0.0439
     26 C           1.3429   12.4571   21.8826 C.3     1  UNL1        0.0111
     27 H           2.4044   12.5562   21.6443 H       1  UNL1        0.0439
     28 H           1.1002   11.3800   21.9124 H       1  UNL1        0.0439
     29 C           0.9767   11.7259   18.9672 C.3     1  UNL1       -0.0127
     30 H           1.2527   11.6996   17.9147 H       1  UNL1        0.0391
     31 H          -0.0160   11.2957   19.0902 H       1  UNL1        0.0391
     32 H           1.7013   11.1174   19.5251 H       1  UNL1        0.0391
     33 C          -1.0370   16.6522   15.6927 C.ar    1  UNL1        0.0601
     34 C          -2.3572   16.3008   15.3670 C.ar    1  UNL1       -0.0216
     35 C          -2.7165   16.1979   14.0295 C.ar    1  UNL1       -0.0565
     36 H          -3.7321   15.9392   13.7697 H       1  UNL1        0.0621
     37 C          -1.7997   16.4337   13.0238 C.ar    1  UNL1       -0.0611
     38 H          -2.0922   16.3441   11.9877 H       1  UNL1        0.0618
     39 C          -0.5050   16.7983   13.3481 C.ar    1  UNL1       -0.0565
     40 H           0.1974   16.9943   12.5531 H       1  UNL1        0.0621
     41 C          -0.1061   16.9282   14.6690 C.ar    1  UNL1       -0.0216
     42 C           1.3162   17.3159   15.0184 C.3     1  UNL1       -0.0197
     43 H           1.3014   17.8557   15.9704 H       1  UNL1        0.0344
     44 C           1.9670   18.2315   13.9808 C.3     1  UNL1       -0.0586
     45 H           2.8960   18.6334   14.3803 H       1  UNL1        0.0235
     46 H           1.3109   19.0634   13.7339 H       1  UNL1        0.0235
     47 H           2.2063   17.6916   13.0677 H       1  UNL1        0.0235
     48 C           2.1574   16.0509   15.2188 C.3     1  UNL1       -0.0586
     49 H           1.7198   15.4343   16.0112 H       1  UNL1        0.0235
     50 H           3.1747   16.3136   15.5033 H       1  UNL1        0.0235
     51 H           2.1923   15.4668   14.3003 H       1  UNL1        0.0235
     52 C          -3.3916   16.0865   16.4488 C.3     1  UNL1       -0.0197
     53 H          -2.8628   15.9786   17.4081 H       1  UNL1        0.0344
     54 C          -4.3266   17.2982   16.5300 C.3     1  UNL1       -0.0586
     55 H          -4.8253   17.4594   15.5759 H       1  UNL1        0.0235
     56 H          -3.7738   18.1984   16.7848 H       1  UNL1        0.0235
     57 H          -5.0865   17.1350   17.2914 H       1  UNL1        0.0235
     58 C          -4.2077   14.8118   16.2270 C.3     1  UNL1       -0.0586
     59 H          -4.8806   14.9095   15.3775 H       1  UNL1        0.0235
     60 H          -4.8091   14.6080   17.1108 H       1  UNL1        0.0235
     61 H          -3.5466   13.9657   16.0522 H       1  UNL1        0.0235
     62 C           2.1433   12.6449   24.1337 C.3     1  UNL1       -0.0130
     63 H           2.1043   11.5615   24.3288 H       1  UNL1        0.0391
     64 H           1.9891   13.1702   25.0748 H       1  UNL1        0.0391
     65 H           3.1351   12.8944   23.7578 H       1  UNL1        0.0391
     66 C          -0.1932   12.8498   23.6983 C.3     1  UNL1       -0.0130
     67 H          -0.4053   11.7792   23.8431 H       1  UNL1        0.0391
     68 H          -0.9363   13.2622   23.0201 H       1  UNL1        0.0391
     69 H          -0.2888   13.3533   24.6590 H       1  UNL1        0.0391
@<TRIPOS>BOND
     1    38    37    1
     2    40    39    1
     3    37    39   ar
     4    37    35   ar
     5    47    44    1
     6    39    41   ar
     7    46    44    1
     8    36    35    1
     9    44    45    1
    10    44    42    1
    11    35    34   ar
    12    51    48    1
    13    41    42    1
    14    41    33   ar
    15    42    48    1
    16    42    43    1
    17    48    50    1
    18    48    49    1
    19    34    33   ar
    20    34    52    1
    21    59    58    1
    22    55    54    1
    23    33     1    1
    24    61    58    1
    25     8     5    1
    26    58    52    1
    27    58    60    1
    28    52    54    1
    29    52    53    1
    30    54    56    1
    31    54    57    1
    32     6     5    1
    33     5     9    1
    34     5     7    1
    35     1     9    1
    36     9    10    2
    37    30    29    1
    38    21    20    1
    39    10    11    1
    40    10    12    1
    41    29    31    1
    42    29     3    1
    43    29    32    1
    44     2    12    1
    45     2    17    1
    46    20     3    1
    47    20    17    1
    48    20    22    1
    49    19    17    1
    50    12    13    1
    51     3    23    1
    52    17    18    1
    53    16    13    1
    54    13    15    1
    55    13    14    1
    56    23    25    1
    57    23    24    1
    58    23    26    1
    59    27    26    1
    60    26    28    1
    61    26     4    1
    62    68    66    1
    63     4    66    1
    64     4    62    1
    65    66    67    1
    66    66    69    1
    67    65    62    1
    68    62    63    1
    69    62    64    1
