@<TRIPOS>MOLECULE
1,2,3
 69 69 0 0 0
SMALL
GASTEIGER

@<TRIPOS>ATOM
      1 N          -4.2641    5.5949   12.6230 N.pl3   1  UNL1       -0.2371
      2 N          -6.3806    3.9505   11.5707 N.pl3   1  UNL1       -0.2542
      3 N          -5.2954    2.5037    9.3882 N.3     1  UNL1       -0.3026
      4 N          -8.1726    2.9090    6.9915 N.3     1  UNL1       -0.3071
      5 C          -5.0798    7.5201   13.9324 C.3     1  UNL1       -0.0359
      6 H          -4.0218    7.7279   14.0697 H       1  UNL1        0.0255
      7 H          -5.5253    7.3399   14.9098 H       1  UNL1        0.0255
      8 H          -5.5639    8.3953   13.5026 H       1  UNL1        0.0255
      9 C          -5.2915    6.3260   13.0239 C.3     1  UNL1        0.0968
     10 C          -6.6201    6.0476   12.6988 C.2     1  UNL1       -0.0387
     11 H          -7.3445    6.7640   13.0591 H       1  UNL1        0.0610
     12 C          -7.1390    4.8829   12.1180 C.2     1  UNL1        0.0204
     13 C          -8.6388    4.7171   12.1946 C.3     1  UNL1       -0.0253
     14 H          -9.0658    4.6029   11.1985 H       1  UNL1        0.0290
     15 H          -9.0999    5.5774   12.6703 H       1  UNL1        0.0290
     16 H          -8.8929    3.8276   12.7708 H       1  UNL1        0.0290
     17 C          -7.0397    2.7264   11.1450 C.3     1  UNL1        0.0438
     18 H          -7.8825    2.9390   10.4715 H       1  UNL1        0.0494
     19 H          -7.4435    2.1851   12.0147 H       1  UNL1        0.0494
     20 C          -6.0483    1.8037   10.4376 C.3     1  UNL1        0.0161
     21 H          -5.3242    1.4317   11.1725 H       1  UNL1        0.0442
     22 H          -6.5930    0.9318   10.0384 H       1  UNL1        0.0442
     23 C          -6.1433    3.1105    8.3508 C.3     1  UNL1        0.0114
     24 H          -5.4751    3.6395    7.6681 H       1  UNL1        0.0439
     25 H          -6.7864    3.8576    8.8205 H       1  UNL1        0.0439
     26 C          -7.0468    2.1674    7.5375 C.3     1  UNL1        0.0111
     27 H          -6.4685    1.6656    6.7410 H       1  UNL1        0.0439
     28 H          -7.4628    1.3949    8.1888 H       1  UNL1        0.0439
     29 C          -4.3445    1.5752    8.7789 C.3     1  UNL1       -0.0127
     30 H          -3.6013    1.2723    9.5160 H       1  UNL1        0.0391
     31 H          -3.8310    2.0703    7.9570 H       1  UNL1        0.0391
     32 H          -4.8420    0.6738    8.3942 H       1  UNL1        0.0391
     33 C          -3.0541    5.6755   13.3554 C.ar    1  UNL1        0.0557
     34 C          -2.9929    5.0570   14.6220 C.ar    1  UNL1       -0.0219
     35 C          -1.8004    5.0923   15.3266 C.ar    1  UNL1       -0.0565
     36 H          -1.7289    4.6081   16.2876 H       1  UNL1        0.0621
     37 C          -0.6917    5.7508   14.8249 C.ar    1  UNL1       -0.0611
     38 H           0.2246    5.7796   15.3959 H       1  UNL1        0.0618
     39 C          -0.7625    6.3711   13.5933 C.ar    1  UNL1       -0.0565
     40 H           0.1033    6.8920   13.2127 H       1  UNL1        0.0621
     41 C          -1.9299    6.3393   12.8408 C.ar    1  UNL1       -0.0219
     42 C          -1.9839    7.0394   11.5015 C.3     1  UNL1       -0.0197
     43 H          -2.9203    6.7489   10.9987 H       1  UNL1        0.0344
     44 C          -0.8263    6.6116   10.5961 C.3     1  UNL1       -0.0586
     45 H           0.1278    6.9779   10.9690 H       1  UNL1        0.0235
     46 H          -0.9775    7.0154    9.5970 H       1  UNL1        0.0235
     47 H          -0.7834    5.5257   10.5298 H       1  UNL1        0.0235
     48 C          -1.9778    8.5596   11.6905 C.3     1  UNL1       -0.0586
     49 H          -2.8455    8.8815   12.2612 H       1  UNL1        0.0235
     50 H          -1.9992    9.0579   10.7235 H       1  UNL1        0.0235
     51 H          -1.0814    8.8766   12.2203 H       1  UNL1        0.0235
     52 C          -4.2015    4.3244   15.1685 C.3     1  UNL1       -0.0197
     53 H          -5.1030    4.8257   14.8043 H       1  UNL1        0.0344
     54 C          -4.2233    2.8939   14.6202 C.3     1  UNL1       -0.0586
     55 H          -4.1858    2.9120   13.5264 H       1  UNL1        0.0235
     56 H          -5.1324    2.3815   14.9286 H       1  UNL1        0.0235
     57 H          -3.3705    2.3302   14.9947 H       1  UNL1        0.0235
     58 C          -4.2683    4.3136   16.6960 C.3     1  UNL1       -0.0586
     59 H          -3.5128    3.6584   17.1231 H       1  UNL1        0.0235
     60 H          -5.2421    3.9478   17.0155 H       1  UNL1        0.0235
     61 H          -4.1288    5.3158   17.0962 H       1  UNL1        0.0235
     62 C          -7.7622    3.8605    5.9754 C.3     1  UNL1       -0.0130
     63 H          -7.0809    4.5941    6.3996 H       1  UNL1        0.0391
     64 H          -8.6440    4.3841    5.6102 H       1  UNL1        0.0391
     65 H          -7.2671    3.3735    5.1211 H       1  UNL1        0.0391
     66 C          -9.1890    2.0143    6.4749 C.3     1  UNL1       -0.0130
     67 H          -8.8282    1.3924    5.6405 H       1  UNL1        0.0391
     68 H         -10.0348    2.6037    6.1251 H       1  UNL1        0.0391
     69 H          -9.5330    1.3576    7.2736 H       1  UNL1        0.0391
@<TRIPOS>BOND
     1    65    62    1
     2    64    62    1
     3    67    66    1
     4    62    63    1
     5    62     4    1
     6    68    66    1
     7    66     4    1
     8    66    69    1
     9    27    26    1
    10     4    26    1
    11    26    28    1
    12    26    23    1
    13    24    23    1
    14    31    29    1
    15    23    25    1
    16    23     3    1
    17    32    29    1
    18    29     3    1
    19    29    30    1
    20     3    20    1
    21    46    44    1
    22    22    20    1
    23    20    17    1
    24    20    21    1
    25    18    17    1
    26    47    44    1
    27    44    45    1
    28    44    42    1
    29    50    48    1
    30    43    42    1
    31    17     2    1
    32    17    19    1
    33    14    13    1
    34    42    48    1
    35    42    41    1
    36     2    12    1
    37    48    51    1
    38    48    49    1
    39    12    13    1
    40    12    10    2
    41    13    15    1
    42    13    16    1
    43     1     9    1
    44     1    33    1
    45    10     9    1
    46    10    11    1
    47    41    33   ar
    48    41    39   ar
    49     9     5    1
    50    40    39    1
    51    33    34   ar
    52     8     5    1
    53    55    54    1
    54    39    37   ar
    55     5     6    1
    56     5     7    1
    57    54    56    1
    58    54    57    1
    59    54    52    1
    60    34    52    1
    61    34    35   ar
    62    53    52    1
    63    37    35   ar
    64    37    38    1
    65    52    58    1
    66    35    36    1
    67    58    60    1
    68    58    61    1
    69    58    59    1
