@<TRIPOS>MOLECULE
1,2,3
 49 49 0 0 0
SMALL
GASTEIGER

@<TRIPOS>ATOM
      1 N           8.6519    3.7671    7.4429 N.3     1  UNL1        0.0000
      2 N           6.3701    3.6049    5.8373 N.3     1  UNL1        0.0000
      3 N           8.3179    1.4609    5.8352 N.pl3   1  UNL1        0.0000
      4 SI          8.9898    4.8104    8.7768 Si      1  UNL1        0.0000
      5 SI          4.7604    4.2371    5.8332 Si      1  UNL1        0.0000
      6 C           8.3867    0.1231    5.7687 C.3     1  UNL1        0.0000
      7 C           8.7132   -0.5681    4.6209 C.2     1  UNL1        0.0000
      8 C           8.9590    0.1568    3.4623 C.2     1  UNL1        0.0000
      9 C           8.9389    1.5355    3.5332 C.2     1  UNL1        0.0000
     10 C           8.6415    2.1671    4.7425 C.2     1  UNL1        0.0000
     11 C           8.7171    3.6589    4.9224 C.3     1  UNL1        0.0000
     12 C           9.4988    4.3399    3.7915 C.3     1  UNL1        0.0000
     13 C           9.4494    3.9647    6.2596 C.3     1  UNL1        0.0000
     14 C           7.2918    4.2683    4.9505 C.3     1  UNL1        0.0000
     15 C           8.0252    6.4648    8.5760 C.3     1  UNL1        0.0000
     16 C          10.8527    5.2784    8.8437 C.3     1  UNL1        0.0000
     17 C           8.6067    3.9774   10.4495 C.3     1  UNL1        0.0000
     18 C           4.5726    5.8626    6.8428 C.3     1  UNL1        0.0000
     19 C           4.2194    4.6783    4.0396 C.3     1  UNL1        0.0000
     20 C           3.4811    2.9826    6.4894 C.3     1  UNL1        0.0000
     21 H           8.1842   -0.4135    6.6897 H       1  UNL1        0.0000
     22 H           8.7577   -1.6448    4.6297 H       1  UNL1        0.0000
     23 H           9.1807   -0.3421    2.5310 H       1  UNL1        0.0000
     24 H           9.1551    2.1161    2.6527 H       1  UNL1        0.0000
     25 H           9.5901    5.4027    4.0038 H       1  UNL1        0.0000
     26 H          10.5000    3.9220    3.7071 H       1  UNL1        0.0000
     27 H           8.9876    4.2419    2.8366 H       1  UNL1        0.0000
     28 H          10.3660    3.3442    6.2927 H       1  UNL1        0.0000
     29 H           9.7884    5.0071    6.1920 H       1  UNL1        0.0000
     30 H           7.4121    5.3301    5.2327 H       1  UNL1        0.0000
     31 H           6.9128    4.2534    3.9146 H       1  UNL1        0.0000
     32 H           8.6020    4.7182   11.2423 H       1  UNL1        0.0000
     33 H           9.3506    3.2295   10.7050 H       1  UNL1        0.0000
     34 H           7.6363    3.4910   10.4385 H       1  UNL1        0.0000
     35 H           3.5842    6.2888    6.7011 H       1  UNL1        0.0000
     36 H           4.6941    5.6680    7.9047 H       1  UNL1        0.0000
     37 H           5.2956    6.6188    6.5488 H       1  UNL1        0.0000
     38 H           7.9916    7.0248    9.5051 H       1  UNL1        0.0000
     39 H           8.4840    7.1076    7.8289 H       1  UNL1        0.0000
     40 H           7.0036    6.2694    8.2609 H       1  UNL1        0.0000
     41 H          11.0713    5.8571    9.7346 H       1  UNL1        0.0000
     42 H          11.4821    4.3940    8.8675 H       1  UNL1        0.0000
     43 H          11.1575    5.8746    7.9892 H       1  UNL1        0.0000
     44 H           3.1591    4.9040    4.0103 H       1  UNL1        0.0000
     45 H           4.7453    5.5495    3.6619 H       1  UNL1        0.0000
     46 H           4.3938    3.8597    3.3470 H       1  UNL1        0.0000
     47 H           2.5789    3.5095    6.7808 H       1  UNL1        0.0000
     48 H           3.8582    2.4599    7.3632 H       1  UNL1        0.0000
     49 H           3.2037    2.2413    5.7478 H       1  UNL1        0.0000
@<TRIPOS>BOND
     1    23     8    1
     2    24     9    1
     3    27    12    1
     4    46    19    1
     5     8     9    1
     6     8     7    2
     7     9    10    2
     8    45    19    1
     9    26    12    1
    10    12    25    1
    11    12    11    1
    12    31    14    1
    13    44    19    1
    14    19     5    1
    15     7    22    1
    16     7     6    1
    17    10    11    1
    18    10     3    1
    19    11    14    1
    20    11    13    1
    21    14    30    1
    22    14     2    1
    23    49    20    1
    24     6     3    1
    25     6    21    1
    26     5     2    1
    27     5    20    1
    28     5    18    1
    29    29    13    1
    30    13    28    1
    31    13     1    1
    32    20    47    1
    33    20    48    1
    34    37    18    1
    35    35    18    1
    36    18    36    1
    37     1     4    1
    38    39    15    1
    39    43    16    1
    40    40    15    1
    41    15     4    1
    42    15    38    1
    43     4    16    1
    44     4    17    1
    45    16    42    1
    46    16    41    1
    47    34    17    1
    48    17    33    1
    49    17    32    1
