@<TRIPOS>MOLECULE
1,5,7
 45 45 0 0 0
SMALL
GASTEIGER

@<TRIPOS>ATOM
      1 N           0.1264    6.0909    7.1419 N.3     1  UNL1        0.0000
      2 C          -0.0614    5.4555    5.8297 C.3     1  UNL1        0.0000
      3 C           1.1623    5.4186    4.9072 C.3     1  UNL1        0.0000
      4 C           2.2604    4.4749    5.4122 C.3     1  UNL1        0.0000
      5 N           2.4800    4.7223    6.8080 N.3     1  UNL1        0.0000
      6 C           3.5047    4.2645    7.4832 C.3     1  UNL1        0.0000
      7 N           3.4311    4.4622    8.7869 N.3     1  UNL1        0.0000
      8 C          -1.1740    6.1550    7.8052 C.3     1  UNL1        0.0000
      9 C           0.6647    7.4408    7.0118 C.3     1  UNL1        0.0000
     10 C           4.6720    3.5974    6.8445 C.ar    1  UNL1        0.0000
     11 C           4.5646    2.3120    6.3252 C.ar    1  UNL1        0.0000
     12 C           5.6647    1.6977    5.7538 C.ar    1  UNL1        0.0000
     13 C           6.8770    2.3639    5.6847 C.ar    1  UNL1        0.0000
     14 C           6.9868    3.6484    6.1902 C.ar    1  UNL1        0.0000
     15 C           5.8903    4.2631    6.7686 C.ar    1  UNL1        0.0000
     16 SI          4.3913    3.8008   10.0553 Si      1  UNL1        0.0000
     17 C           3.2644    3.9804   11.5854 C.3     1  UNL1        0.0000
     18 C           6.0426    4.7431   10.3183 C.3     1  UNL1        0.0000
     19 C           4.8444    1.9558    9.7750 C.3     1  UNL1        0.0000
     20 H          -0.8690    5.9860    5.2903 H       1  UNL1        0.0000
     21 H          -0.3843    4.4258    6.0228 H       1  UNL1        0.0000
     22 H           1.5706    6.4220    4.7746 H       1  UNL1        0.0000
     23 H           0.8284    5.0739    3.9251 H       1  UNL1        0.0000
     24 H           3.1785    4.6162    4.8155 H       1  UNL1        0.0000
     25 H           1.9259    3.4346    5.2635 H       1  UNL1        0.0000
     26 H          -1.0540    6.6247    8.7830 H       1  UNL1        0.0000
     27 H          -1.8984    6.7337    7.2070 H       1  UNL1        0.0000
     28 H          -1.5473    5.1405    7.9564 H       1  UNL1        0.0000
     29 H           0.6438    7.9272    7.9890 H       1  UNL1        0.0000
     30 H           0.0731    8.0426    6.3022 H       1  UNL1        0.0000
     31 H           1.7023    7.4035    6.6751 H       1  UNL1        0.0000
     32 H           3.6204    1.7902    6.3866 H       1  UNL1        0.0000
     33 H           5.5759    0.6950    5.3617 H       1  UNL1        0.0000
     34 H           7.7347    1.8829    5.2380 H       1  UNL1        0.0000
     35 H           7.9301    4.1724    6.1356 H       1  UNL1        0.0000
     36 H           5.9726    5.2654    7.1640 H       1  UNL1        0.0000
     37 H           3.3668    3.1470   12.2731 H       1  UNL1        0.0000
     38 H           3.4829    4.8879   12.1402 H       1  UNL1        0.0000
     39 H           2.2247    4.0343   11.2550 H       1  UNL1        0.0000
     40 H           6.4938    4.4462   11.2593 H       1  UNL1        0.0000
     41 H           5.8941    5.8178   10.3540 H       1  UNL1        0.0000
     42 H           6.7595    4.5292    9.5309 H       1  UNL1        0.0000
     43 H           5.2227    1.5046   10.6867 H       1  UNL1        0.0000
     44 H           5.6107    1.8455    9.0131 H       1  UNL1        0.0000
     45 H           3.9791    1.3812    9.4566 H       1  UNL1        0.0000
@<TRIPOS>BOND
     1    23     3    1
     2    22     3    1
     3    24     4    1
     4     3     4    1
     5     3     2    1
     6    34    13    1
     7    25     4    1
     8    20     2    1
     9    33    12    1
    10     4     5    1
    11    13    12   ar
    12    13    14   ar
    13    12    11   ar
    14     2    21    1
    15     2     1    1
    16    35    14    1
    17    14    15   ar
    18    30     9    1
    19    11    32    1
    20    11    10   ar
    21    31     9    1
    22    15    10   ar
    23    15    36    1
    24     5     6    1
    25    10     6    1
    26     9     1    1
    27     9    29    1
    28     1     8    1
    29    27     8    1
    30     6     7    1
    31     8    28    1
    32     8    26    1
    33     7    16    1
    34    44    19    1
    35    45    19    1
    36    42    18    1
    37    19    16    1
    38    19    43    1
    39    16    18    1
    40    16    17    1
    41    18    41    1
    42    18    40    1
    43    39    17    1
    44    17    38    1
    45    17    37    1
