@<TRIPOS>MOLECULE
1,2,3
 33 33 0 0 0
SMALL
GASTEIGER

@<TRIPOS>ATOM
      1 N           7.4897    9.9800    5.9905 N.3     1  UNL1       -0.3029
      2 N           5.3531    8.7515    4.7089 N.3     1  UNL1       -0.3029
      3 N           5.9811   11.4138    4.1573 N.3     1  UNL1       -0.3029
      4 C           5.2928   10.6389    3.1168 C.3     1  UNL1        0.0114
      5 H           5.6040   10.9562    2.1107 H       1  UNL1        0.0439
      6 H           4.2225   10.8317    3.2324 H       1  UNL1        0.0439
      7 C           7.7493    8.7034    5.2995 C.3     1  UNL1        0.0114
      8 H           8.4856    8.1082    5.8514 H       1  UNL1        0.0439
      9 H           8.1785    8.8921    4.3119 H       1  UNL1        0.0439
     10 C           8.1328   11.1108    5.3114 C.3     1  UNL1        0.0114
     11 H           9.2043   10.9223    5.1480 H       1  UNL1        0.0439
     12 H           8.0322   11.9832    5.9665 H       1  UNL1        0.0439
     13 C           7.4433   11.4083    3.9769 C.3     1  UNL1        0.0114
     14 H           7.7935   12.3782    3.6056 H       1  UNL1        0.0439
     15 H           7.7271   10.6665    3.2255 H       1  UNL1        0.0439
     16 C           5.5415    9.1410    3.2950 C.3     1  UNL1        0.0114
     17 H           4.8464    8.5917    2.6515 H       1  UNL1        0.0439
     18 H           6.5499    8.8774    2.9656 H       1  UNL1        0.0439
     19 C           4.0922    7.9989    4.8425 C.3     1  UNL1       -0.0127
     20 H           4.1367    7.0719    4.2596 H       1  UNL1        0.0391
     21 H           3.2634    8.6197    4.5011 H       1  UNL1        0.0391
     22 H           3.9166    7.7672    5.8948 H       1  UNL1        0.0391
     23 C           6.4546    7.8993    5.1811 C.3     1  UNL1        0.0114
     24 H           6.6013    7.0382    4.5145 H       1  UNL1        0.0439
     25 H           6.1707    7.5360    6.1735 H       1  UNL1        0.0439
     26 C           7.9860    9.8952    7.3684 C.3     1  UNL1       -0.0127
     27 H           9.0709    9.7365    7.3828 H       1  UNL1        0.0391
     28 H           7.4886    9.0734    7.8814 H       1  UNL1        0.0391
     29 H           7.7487   10.8145    7.9009 H       1  UNL1        0.0391
     30 C           5.4820   12.7938    4.1275 C.3     1  UNL1       -0.0127
     31 H           5.6499   13.2469    3.1432 H       1  UNL1        0.0391
     32 H           5.9877   13.3832    4.8912 H       1  UNL1        0.0391
     33 H           4.4147   12.7973    4.3462 H       1  UNL1        0.0391
@<TRIPOS>BOND
     1     5     4    1
     2    17    16    1
     3    18    16    1
     4     4     6    1
     5     4    16    1
     6     4     3    1
     7    31    30    1
     8    15    13    1
     9    16     2    1
    10    14    13    1
    11    13     3    1
    12    13    10    1
    13    30     3    1
    14    30    33    1
    15    30    32    1
    16    20    19    1
    17     9     7    1
    18    21    19    1
    19    24    23    1
    20     2    19    1
    21     2    23    1
    22    19    22    1
    23    11    10    1
    24    23     7    1
    25    23    25    1
    26     7     8    1
    27     7     1    1
    28    10    12    1
    29    10     1    1
    30     1    26    1
    31    26    27    1
    32    26    28    1
    33    26    29    1
