@<TRIPOS>MOLECULE
1,2,24
 51 51 0 0 0
SMALL
GASTEIGER

@<TRIPOS>ATOM
      1 N          -6.5915    7.0760   18.8401 N.3     1  UNL1       -0.2718
      2 N          -7.0368    8.9018   17.4938 N.3     1  UNL1       -0.2718
      3 C          -6.9586   10.3742   17.2412 C.3     1  UNL1        0.0159
      4 C          -5.7405   10.9471   17.9733 C.3     1  UNL1       -0.0470
      5 H          -5.9408   11.1166   19.0287 H       1  UNL1        0.0247
      6 H          -5.4753   11.9072   17.5413 H       1  UNL1        0.0247
      7 H          -4.8854   10.2800   17.8653 H       1  UNL1        0.0247
      8 C          -6.7581   10.5749   15.7369 C.3     1  UNL1       -0.0470
      9 H          -5.9998    9.8806   15.3717 H       1  UNL1        0.0247
     10 H          -6.4162   11.5869   15.5417 H       1  UNL1        0.0247
     11 H          -7.6794   10.4381   15.1750 H       1  UNL1        0.0247
     12 C          -6.9525    8.4931   18.8898 C.3     1  UNL1        0.0551
     13 H          -7.9128    8.6473   19.4197 H       1  UNL1        0.0596
     14 H          -6.1550    9.0447   19.3841 H       1  UNL1        0.0596
     15 C          -6.0710    6.5199   20.1401 C.3     1  UNL1        0.0159
     16 C          -4.7768    7.2520   20.5055 C.3     1  UNL1       -0.0470
     17 H          -4.2567    6.7020   21.2841 H       1  UNL1        0.0247
     18 H          -4.9604    8.2526   20.8903 H       1  UNL1        0.0247
     19 H          -4.1219    7.3129   19.6338 H       1  UNL1        0.0247
     20 C          -8.2277   11.0942   17.7104 C.3     1  UNL1       -0.0470
     21 H          -9.1058   10.7791   17.1514 H       1  UNL1        0.0247
     22 H          -8.1032   12.1618   17.5530 H       1  UNL1        0.0247
     23 H          -8.4082   10.9360   18.7713 H       1  UNL1        0.0247
     24 N          -7.8088    6.8056   16.8910 N.3     1  UNL1       -0.2718
     25 C          -8.1822    8.2185   16.9053 C.3     1  UNL1        0.0551
     26 H          -8.3375    8.5732   15.8864 H       1  UNL1        0.0596
     27 H          -9.1034    8.3839   17.4999 H       1  UNL1        0.0596
     28 C          -7.7356    6.3610   18.2791 C.3     1  UNL1        0.0551
     29 H          -7.5399    5.2902   18.3069 H       1  UNL1        0.0596
     30 H          -8.6664    6.5937   18.8320 H       1  UNL1        0.0596
     31 C          -8.6182    5.9208   15.9981 C.3     1  UNL1        0.0159
     32 C          -7.9817    4.5253   16.0136 C.3     1  UNL1       -0.0470
     33 H          -6.8927    4.6018   16.0167 H       1  UNL1        0.0247
     34 H          -8.2844    3.9691   15.1313 H       1  UNL1        0.0247
     35 H          -8.2997    3.9440   16.8760 H       1  UNL1        0.0247
     36 C          -5.7504    5.0330   19.9616 C.3     1  UNL1       -0.0470
     37 H          -6.6429    4.4115   19.9828 H       1  UNL1        0.0247
     38 H          -5.1131    4.7017   20.7757 H       1  UNL1        0.0247
     39 H          -5.2091    4.8763   19.0268 H       1  UNL1        0.0247
     40 C          -7.1004    6.6911   21.2636 C.3     1  UNL1       -0.0470
     41 H          -8.0362    6.1842   21.0398 H       1  UNL1        0.0247
     42 H          -7.3036    7.7375   21.4773 H       1  UNL1        0.0247
     43 H          -6.6972    6.2462   22.1691 H       1  UNL1        0.0247
     44 C         -10.0784    5.8310   16.4585 C.3     1  UNL1       -0.0470
     45 H         -10.1658    5.3954   17.4508 H       1  UNL1        0.0247
     46 H         -10.6219    5.1901   15.7699 H       1  UNL1        0.0247
     47 H         -10.5637    6.8045   16.4554 H       1  UNL1        0.0247
     48 C          -8.5698    6.4882   14.5747 C.3     1  UNL1       -0.0470
     49 H          -9.2465    7.3311   14.4492 H       1  UNL1        0.0247
     50 H          -8.8838    5.7265   13.8668 H       1  UNL1        0.0247
     51 H          -7.5543    6.7927   14.3214 H       1  UNL1        0.0247
@<TRIPOS>BOND
     1    50    48    1
     2    51    48    1
     3    49    48    1
     4    48    31    1
     5    34    32    1
     6    11     8    1
     7     9     8    1
     8    10     8    1
     9     8     3    1
    10    46    44    1
    11    26    25    1
    12    31    32    1
    13    31    44    1
    14    31    24    1
    15    32    33    1
    16    32    35    1
    17    47    44    1
    18    44    45    1
    19    24    25    1
    20    24    28    1
    21    25     2    1
    22    25    27    1
    23    21    20    1
    24     3     2    1
    25     3    20    1
    26     3     4    1
    27     2    12    1
    28     6     4    1
    29    22    20    1
    30    20    23    1
    31     7     4    1
    32     4     5    1
    33    28    29    1
    34    28    30    1
    35    28     1    1
    36     1    12    1
    37     1    15    1
    38    12    14    1
    39    12    13    1
    40    39    36    1
    41    19    16    1
    42    36    37    1
    43    36    15    1
    44    36    38    1
    45    15    16    1
    46    15    40    1
    47    16    18    1
    48    16    17    1
    49    41    40    1
    50    40    42    1
    51    40    43    1
