@<TRIPOS>MOLECULE
1,2,7
 33 33 0 0 0
SMALL
GASTEIGER

@<TRIPOS>ATOM
      1 N           5.5611   23.8628   -0.6932 N.3     1  UNL1       -0.3029
      2 N           6.4511   26.4135   -1.4192 N.3     1  UNL1       -0.3029
      3 C           6.0705   27.8341   -1.4992 C.3     1  UNL1       -0.0127
      4 H           6.6377   28.4108   -0.7661 H       1  UNL1        0.0391
      5 H           5.0081   27.9288   -1.2644 H       1  UNL1        0.0391
      6 H           6.2557   28.2355   -2.5034 H       1  UNL1        0.0391
      7 N           7.8365   24.9786    0.4676 N.3     1  UNL1       -0.3029
      8 C           7.9575   23.6309   -0.1290 C.3     1  UNL1        0.0114
      9 H           8.3732   23.7036   -1.1369 H       1  UNL1        0.0439
     10 H           8.6505   23.0102    0.4508 H       1  UNL1        0.0439
     11 C           5.6589   25.6460   -2.3975 C.3     1  UNL1        0.0114
     12 H           5.9621   25.8745   -3.4295 H       1  UNL1        0.0439
     13 H           4.6136   25.9428   -2.2539 H       1  UNL1        0.0439
     14 C           6.5859   22.9490   -0.1562 C.3     1  UNL1        0.0114
     15 H           6.6354   22.0172   -0.7373 H       1  UNL1        0.0439
     16 H           6.2847   22.7170    0.8732 H       1  UNL1        0.0439
     17 C           5.7656   24.1393   -2.1334 C.3     1  UNL1        0.0114
     18 H           6.7367   23.7560   -2.4563 H       1  UNL1        0.0439
     19 H           5.0082   23.6248   -2.7344 H       1  UNL1        0.0439
     20 C           7.9033   26.2652   -1.6389 C.3     1  UNL1        0.0114
     21 H           8.3297   27.1736   -2.0789 H       1  UNL1        0.0439
     22 H           8.0955   25.4548   -2.3463 H       1  UNL1        0.0439
     23 C           8.5935   25.9853   -0.2972 C.3     1  UNL1        0.0114
     24 H           9.6329   25.6671   -0.4630 H       1  UNL1        0.0439
     25 H           8.6037   26.9064    0.2966 H       1  UNL1        0.0439
     26 C           8.3333   24.9407    1.8520 C.3     1  UNL1       -0.0127
     27 H           9.3919   24.6529    1.8820 H       1  UNL1        0.0391
     28 H           7.7438   24.2230    2.4232 H       1  UNL1        0.0391
     29 H           8.2155   25.9229    2.3101 H       1  UNL1        0.0391
     30 C           4.2248   23.2633   -0.4822 C.3     1  UNL1       -0.0127
     31 H           4.1476   22.2962   -0.9941 H       1  UNL1        0.0391
     32 H           3.4638   23.9547   -0.8538 H       1  UNL1        0.0391
     33 H           4.0578   23.1381    0.5943 H       1  UNL1        0.0391
@<TRIPOS>BOND
     1    12    11    1
     2    19    17    1
     3     6     3    1
     4    18    17    1
     5    11    13    1
     6    11    17    1
     7    11     2    1
     8    22    20    1
     9    17     1    1
    10    21    20    1
    11    20     2    1
    12    20    23    1
    13     3     2    1
    14     3     5    1
    15     3     4    1
    16     9     8    1
    17    31    30    1
    18    32    30    1
    19    15    14    1
    20     1    30    1
    21     1    14    1
    22    30    33    1
    23    24    23    1
    24    23    25    1
    25    23     7    1
    26    14     8    1
    27    14    16    1
    28     8    10    1
    29     8     7    1
    30     7    26    1
    31    26    27    1
    32    26    29    1
    33    26    28    1
