@<TRIPOS>MOLECULE
4,10,20
 49 49 0 0 0
SMALL
GASTEIGER

@<TRIPOS>ATOM
      1 C          -0.7053   -0.1101   14.9081 C.3     1  UNL1        0.0000
      2 C          -2.0244   -0.6159   15.5018 C.3     1  UNL1        0.0000
      3 C          -0.4214   -0.9048   13.5850 C.3     1  UNL1        0.0000
      4 N           0.5552   -0.2806   12.7477 N.3     1  UNL1        0.0000
      5 SI          0.1973    0.2116   11.1496 Si      1  UNL1        0.0000
      6 C           0.0850   -1.2464    9.9073 C.3     1  UNL1        0.0000
      7 C          -1.4602    1.1861   10.9962 C.3     1  UNL1        0.0000
      8 C           1.6329    1.3769   10.6781 C.3     1  UNL1        0.0000
      9 C           0.4296   -0.3913   15.9414 C.3     1  UNL1        0.0000
     10 N           1.7446   -0.5629   15.3817 N.3     1  UNL1        0.0000
     11 SI          2.7869   -1.7807   16.0133 Si      1  UNL1        0.0000
     12 C           2.4331   -3.5260   15.2825 C.3     1  UNL1        0.0000
     13 C           2.5541   -1.9341   17.9193 C.3     1  UNL1        0.0000
     14 C           4.6037   -1.3023   15.6720 C.3     1  UNL1        0.0000
     15 C          -0.7460    1.3558   14.5656 C.3     1  UNL1        0.0000
     16 C          -1.9175    2.1117   14.5432 C.2     1  UNL1        0.0000
     17 C          -1.8720    3.4383   14.1531 C.2     1  UNL1        0.0000
     18 C          -0.6528    3.9863   13.7797 C.2     1  UNL1        0.0000
     19 C           0.4676    3.1781   13.8370 C.2     1  UNL1        0.0000
     20 N           0.4277    1.9048   14.2221 N.pl3   1  UNL1        0.0000
     21 H          -2.2513   -0.1029   16.4348 H       1  UNL1        0.0000
     22 H          -2.8520   -0.4797   14.8093 H       1  UNL1        0.0000
     23 H          -1.9425   -1.6808   15.7091 H       1  UNL1        0.0000
     24 H          -1.3831   -1.0188   13.0622 H       1  UNL1        0.0000
     25 H          -0.0815   -1.9098   13.8892 H       1  UNL1        0.0000
     26 H          -0.1429   -0.8950    8.9061 H       1  UNL1        0.0000
     27 H           1.0236   -1.7902    9.8614 H       1  UNL1        0.0000
     28 H          -0.6913   -1.9512   10.1910 H       1  UNL1        0.0000
     29 H          -1.7056    1.3866    9.9587 H       1  UNL1        0.0000
     30 H          -2.2865    0.6207   11.4177 H       1  UNL1        0.0000
     31 H          -1.4206    2.1406   11.5148 H       1  UNL1        0.0000
     32 H           1.4306    1.9223    9.7623 H       1  UNL1        0.0000
     33 H           1.8074    2.1032   11.4737 H       1  UNL1        0.0000
     34 H           2.5457    0.8044   10.5310 H       1  UNL1        0.0000
     35 H           0.1331   -1.2944   16.4916 H       1  UNL1        0.0000
     36 H           0.4262    0.4374   16.6740 H       1  UNL1        0.0000
     37 H           3.0558   -4.2828   15.7491 H       1  UNL1        0.0000
     38 H           1.3974   -3.8242   15.4265 H       1  UNL1        0.0000
     39 H           2.6401   -3.5403   14.2157 H       1  UNL1        0.0000
     40 H           3.2993   -2.5939   18.3505 H       1  UNL1        0.0000
     41 H           2.6442   -0.9711   18.4131 H       1  UNL1        0.0000
     42 H           1.5797   -2.3407   18.1728 H       1  UNL1        0.0000
     43 H           5.2557   -1.6534   16.4649 H       1  UNL1        0.0000
     44 H           4.9457   -1.7463   14.7430 H       1  UNL1        0.0000
     45 H           4.7217   -0.2254   15.5871 H       1  UNL1        0.0000
     46 H          -2.8599    1.6795   14.8342 H       1  UNL1        0.0000
     47 H          -2.7724    4.0343   14.1384 H       1  UNL1        0.0000
     48 H          -0.5725    5.0146   13.4650 H       1  UNL1        0.0000
     49 H           1.4478    3.5745   13.5905 H       1  UNL1        0.0000
@<TRIPOS>BOND
     1    26     6    1
     2    32     8    1
     3    27     6    1
     4     6    28    1
     5     6     5    1
     6    29     7    1
     7    34     8    1
     8     8     5    1
     9     8    33    1
    10     7     5    1
    11     7    30    1
    12     7    31    1
    13     5     4    1
    14     4     3    1
    15    24     3    1
    16    48    18    1
    17     3    25    1
    18     3     1    1
    19    49    19    1
    20    18    19    2
    21    18    17    1
    22    19    20    1
    23    47    17    1
    24    17    16    2
    25    39    12    1
    26    20    15    1
    27    16    15    1
    28    16    46    1
    29    15     1    1
    30    44    14    1
    31    22     2    1
    32     1     2    1
    33     1     9    1
    34    12    38    1
    35    12    37    1
    36    12    11    1
    37    10     9    1
    38    10    11    1
    39     2    23    1
    40     2    21    1
    41    45    14    1
    42    14    11    1
    43    14    43    1
    44     9    35    1
    45     9    36    1
    46    11    13    1
    47    13    42    1
    48    13    40    1
    49    13    41    1
