@<TRIPOS>MOLECULE
1,8,15
 47 49 0 0 0
SMALL
GASTEIGER

@<TRIPOS>ATOM
      1 N           4.7281   13.6002    3.2254 N.3     1  UNL1        0.0000
      2 N           5.9726   14.1840    3.2346 N.pl3   1  UNL1        0.0000
      3 C           4.9065   12.2908    3.2008 C.3     1  UNL1        0.0000
      4 C           6.2884   11.9996    3.2102 C.2     1  UNL1        0.0000
      5 C           6.9310   13.2056    3.2393 C.2     1  UNL1        0.0000
      6 C           3.7929   11.3181    3.1762 C.3     1  UNL1        0.0000
      7 C           8.3879   13.4795    3.2953 C.3     1  UNL1        0.0000
      8 N           3.4480   16.3230    2.5395 N.3     1  UNL1        0.0000
      9 N           4.7359   16.4170    2.0683 N.pl3   1  UNL1        0.0000
     10 C           2.6472   16.7907    1.5976 C.3     1  UNL1        0.0000
     11 C           3.4116   17.1852    0.4778 C.2     1  UNL1        0.0000
     12 C           4.7158   16.9315    0.7991 C.2     1  UNL1        0.0000
     13 C           1.1770   16.8603    1.7405 C.3     1  UNL1        0.0000
     14 C           5.9284   17.1239   -0.0334 C.3     1  UNL1        0.0000
     15 N           4.5034   15.8093    5.3668 N.3     1  UNL1        0.0000
     16 N           5.5312   16.4954    4.7645 N.pl3   1  UNL1        0.0000
     17 C           4.3427   16.3185    6.5759 C.3     1  UNL1        0.0000
     18 C           5.2670   17.3673    6.7753 C.2     1  UNL1        0.0000
     19 C           5.9934   17.4592    5.6210 C.2     1  UNL1        0.0000
     20 C           3.3274   15.8328    7.5348 C.3     1  UNL1        0.0000
     21 C           7.0772   18.4144    5.2839 C.3     1  UNL1        0.0000
     22 SI          6.0332   15.9450    3.1657 Si      1  UNL1        0.0000
     23 C           7.7202   16.6114    2.6442 C.3     1  UNL1        0.0000
     24 H           6.7342   11.0264    3.2048 H       1  UNL1        0.0000
     25 H           4.1395   10.3557    2.8088 H       1  UNL1        0.0000
     26 H           3.4035   11.1903    4.1898 H       1  UNL1        0.0000
     27 H           2.9750   11.6846    2.5542 H       1  UNL1        0.0000
     28 H           8.9171   12.5424    3.4442 H       1  UNL1        0.0000
     29 H           8.6226   14.1473    4.1213 H       1  UNL1        0.0000
     30 H           8.7425   13.9300    2.3704 H       1  UNL1        0.0000
     31 H           3.0360   17.5911   -0.4388 H       1  UNL1        0.0000
     32 H           0.7633   17.5868    1.0458 H       1  UNL1        0.0000
     33 H           0.9006   17.1198    2.7634 H       1  UNL1        0.0000
     34 H           0.7473   15.8789    1.5224 H       1  UNL1        0.0000
     35 H           5.6242   17.3938   -1.0409 H       1  UNL1        0.0000
     36 H           6.5573   17.9203    0.3595 H       1  UNL1        0.0000
     37 H           6.5127   16.2076   -0.0798 H       1  UNL1        0.0000
     38 H           5.3667   17.9698    7.6545 H       1  UNL1        0.0000
     39 H           3.5751   16.1541    8.5432 H       1  UNL1        0.0000
     40 H           2.3495   16.2395    7.2631 H       1  UNL1        0.0000
     41 H           3.2511   14.7450    7.4968 H       1  UNL1        0.0000
     42 H           7.1406   19.1652    6.0667 H       1  UNL1        0.0000
     43 H           6.8734   18.9125    4.3388 H       1  UNL1        0.0000
     44 H           8.0399   17.9118    5.2134 H       1  UNL1        0.0000
     45 H           7.6791   17.6760    2.4485 H       1  UNL1        0.0000
     46 H           8.4642   16.4490    3.4143 H       1  UNL1        0.0000
     47 H           8.0728   16.1265    1.7421 H       1  UNL1        0.0000
@<TRIPOS>BOND
     1    35    14    1
     2    31    11    1
     3    37    14    1
     4    14    36    1
     5    14    12    1
     6    11    12    2
     7    11    10    1
     8    12     9    1
     9    32    13    1
    10    34    13    1
    11    10    13    1
    12    10     8    1
    13    13    33    1
    14    47    23    1
    15     9     8    1
    16     9    22    1
    17    30     7    1
    18    45    23    1
    19    27     6    1
    20    23    22    1
    21    23    46    1
    22    25     6    1
    23    22     2    1
    24    22    16    1
    25     6     3    1
    26     6    26    1
    27     3     4    1
    28     3     1    1
    29    24     4    1
    30     4     5    2
    31     1     2    1
    32     2     5    1
    33     5     7    1
    34     7    28    1
    35     7    29    1
    36    43    21    1
    37    16    15    1
    38    16    19    1
    39    44    21    1
    40    21    19    1
    41    21    42    1
    42    15    17    1
    43    19    18    2
    44    17    18    1
    45    17    20    1
    46    18    38    1
    47    40    20    1
    48    41    20    1
    49    20    39    1
