@<TRIPOS>MOLECULE
1,8,15
 44 46 0 0 0
SMALL
GASTEIGER

@<TRIPOS>ATOM
      1 N           1.2957    9.0946    5.9673 N.3     1  UNL1       -0.1267
      2 N           2.5957    9.4575    6.0015 N.pl3   1  UNL1       -0.2140
      3 C           1.2819    7.7721    5.9347 C.3     1  UNL1        0.0984
      4 C           2.5984    7.2727    5.9461 C.2     1  UNL1       -0.0409
      5 C           3.4188    8.3704    5.9894 C.2     1  UNL1        0.0221
      6 C           0.0415    6.9630    5.9101 C.3     1  UNL1       -0.0378
      7 C           4.9024    8.4375    6.0229 C.3     1  UNL1       -0.0254
      8 N           1.2876   11.8398    4.6197 N.3     1  UNL1       -0.1267
      9 N           2.5859   11.5556    4.8602 N.pl3   1  UNL1       -0.2140
     10 C           1.2644   12.5442    3.5000 C.3     1  UNL1        0.0984
     11 C           2.5714   12.7110    3.0040 C.2     1  UNL1       -0.0409
     12 C           3.3970   12.0692    3.8918 C.2     1  UNL1        0.0221
     13 C           0.0201   13.0795    2.9001 C.3     1  UNL1       -0.0378
     14 C           4.8736   11.9094    3.8676 C.3     1  UNL1       -0.0254
     15 N           1.2666   11.7840    7.4539 N.3     1  UNL1       -0.1267
     16 N           2.5693   11.5108    7.2278 N.pl3   1  UNL1       -0.2140
     17 C           1.2176   12.4564    8.5913 C.3     1  UNL1        0.0984
     18 C           2.5153   12.6134    9.1162 C.2     1  UNL1       -0.0409
     19 C           3.3600   12.0005    8.2258 C.2     1  UNL1        0.0221
     20 C          -0.0487   12.9686    9.1614 C.3     1  UNL1       -0.0378
     21 C           4.8366   11.8446    8.2718 C.3     1  UNL1       -0.0254
     22 C           3.0099   10.8354    6.0343 C.3     1  UNL1        0.2049
     23 H           2.8980    6.2449    5.9251 H       1  UNL1        0.0607
     24 H           0.2387    5.9944    5.4560 H       1  UNL1        0.0252
     25 H          -0.3117    6.8072    6.9288 H       1  UNL1        0.0252
     26 H          -0.7305    7.4857    5.3516 H       1  UNL1        0.0252
     27 H           5.2979    7.4259    6.0032 H       1  UNL1        0.0290
     28 H           5.2594    8.9221    6.9316 H       1  UNL1        0.0290
     29 H           5.2999    8.9727    5.1605 H       1  UNL1        0.0290
     30 H           2.8621   13.2280    2.1129 H       1  UNL1        0.0607
     31 H           0.1999   13.3721    1.8688 H       1  UNL1        0.0252
     32 H          -0.3152   13.9533    3.4578 H       1  UNL1        0.0252
     33 H          -0.7604   12.3230    2.9404 H       1  UNL1        0.0252
     34 H           5.2694   12.4394    3.0060 H       1  UNL1        0.0290
     35 H           5.3387   12.3224    4.7633 H       1  UNL1        0.0290
     36 H           5.1538   10.8598    3.7770 H       1  UNL1        0.0290
     37 H           2.7879   13.1057   10.0268 H       1  UNL1        0.0607
     38 H           0.0055   12.9883   10.2463 H       1  UNL1        0.0252
     39 H          -0.2303   13.9838    8.8098 H       1  UNL1        0.0252
     40 H          -0.8728   12.3370    8.8335 H       1  UNL1        0.0252
     41 H           5.2149   12.3466    9.1577 H       1  UNL1        0.0290
     42 H           5.3163   12.2885    7.3989 H       1  UNL1        0.0290
     43 H           5.1189   10.7934    8.3322 H       1  UNL1        0.0290
     44 H           4.1058   10.8393    6.0424 H       1  UNL1        0.0974
@<TRIPOS>BOND
     1    31    13    1
     2    30    11    1
     3    13    33    1
     4    13    32    1
     5    13    10    1
     6    11    10    1
     7    11    12    2
     8    34    14    1
     9    10     8    1
    10    36    14    1
    11    14    12    1
    12    14    35    1
    13    12     9    1
    14     8     9    1
    15     9    22    1
    16    29     7    1
    17    26     6    1
    18    24     6    1
    19     6     3    1
    20     6    25    1
    21    23     4    1
    22     3     4    1
    23     3     1    1
    24     4     5    2
    25     1     2    1
    26     5     2    1
    27     5     7    1
    28     2    22    1
    29    27     7    1
    30     7    28    1
    31    22    44    1
    32    22    16    1
    33    16    15    1
    34    16    19    1
    35    42    21    1
    36    15    17    1
    37    19    21    1
    38    19    18    2
    39    21    43    1
    40    21    41    1
    41    17    18    1
    42    17    20    1
    43    39    20    1
    44    40    20    1
    45    18    37    1
    46    20    38    1
