@<TRIPOS>MOLECULE
1,2
 45 47 0 0 0
SMALL
GASTEIGER

@<TRIPOS>ATOM
      1 N           4.6886   -0.3839    5.1185 N.ar    1  UNL1       -0.2539
      2 N           6.2753    0.2815    3.2531 N.3     1  UNL1       -0.2967
      3 N           2.3938    0.5664    4.6521 N.3     1  UNL1       -0.2967
      4 C           5.9859   -0.5312    5.4732 C.ar    1  UNL1        0.0556
      5 C           6.0712   -0.5846    6.8481 C.ar    1  UNL1       -0.0374
      6 H           6.9570   -0.7011    7.4437 H       1  UNL1        0.0636
      7 C           4.7471   -0.4585    7.3390 C.ar    1  UNL1       -0.0374
      8 H           4.4532   -0.4647    8.3714 H       1  UNL1        0.0636
      9 C           3.9296   -0.3342    6.2362 C.ar    1  UNL1        0.0556
     10 C           6.8934   -0.5894    4.2799 C.3     1  UNL1        0.0412
     11 H           6.9066   -1.6129    3.8802 H       1  UNL1        0.0491
     12 H           7.9199   -0.2918    4.5249 H       1  UNL1        0.0491
     13 C           2.4697   -0.1888    5.9262 C.3     1  UNL1        0.0412
     14 H           1.9232    0.3020    6.7400 H       1  UNL1        0.0491
     15 H           2.0341   -1.1823    5.7636 H       1  UNL1        0.0491
     16 C           6.6719   -0.0655    1.8821 C.3     1  UNL1       -0.0007
     17 H           6.4592   -1.1306    1.7315 H       1  UNL1        0.0427
     18 H           6.0354    0.5082    1.1943 H       1  UNL1        0.0427
     19 C           8.1389    0.2578    1.5893 C.3     1  UNL1       -0.0402
     20 H           8.3620   -0.0034    0.5542 H       1  UNL1        0.0278
     21 H           8.7920   -0.3372    2.2310 H       1  UNL1        0.0278
     22 C           8.3894    1.7450    1.8252 C.3     1  UNL1       -0.0507
     23 H           9.4373    1.9903    1.6434 H       1  UNL1        0.0266
     24 H           7.7815    2.3281    1.1292 H       1  UNL1        0.0266
     25 C           8.0059    2.1049    3.2578 C.3     1  UNL1       -0.0402
     26 H           8.1048    3.1800    3.4180 H       1  UNL1        0.0278
     27 H           8.6828    1.6075    3.9556 H       1  UNL1        0.0278
     28 C           6.5520    1.6997    3.5310 C.3     1  UNL1       -0.0007
     29 H           6.3039    1.8992    4.5836 H       1  UNL1        0.0427
     30 H           5.9024    2.3091    2.8874 H       1  UNL1        0.0427
     31 C           1.2007    0.2472    3.8579 C.3     1  UNL1       -0.0007
     32 H           1.1753   -0.8375    3.7033 H       1  UNL1        0.0427
     33 H           1.3119    0.7301    2.8770 H       1  UNL1        0.0427
     34 C          -0.0943    0.7437    4.5047 C.3     1  UNL1       -0.0402
     35 H          -0.9355    0.4864    3.8599 H       1  UNL1        0.0278
     36 H          -0.2469    0.2505    5.4670 H       1  UNL1        0.0278
     37 C          -0.0158    2.2557    4.6979 C.3     1  UNL1       -0.0507
     38 H           0.0721    2.7399    3.7222 H       1  UNL1        0.0266
     39 H          -0.9224    2.6285    5.1779 H       1  UNL1        0.0266
     40 C           1.2063    2.5971    5.5463 C.3     1  UNL1       -0.0402
     41 H           1.3223    3.6796    5.6252 H       1  UNL1        0.0278
     42 H           1.0687    2.2094    6.5579 H       1  UNL1        0.0278
     43 C           2.4733    2.0148    4.9062 C.3     1  UNL1       -0.0007
     44 H           2.6326    2.5274    3.9480 H       1  UNL1        0.0427
     45 H           3.3379    2.2019    5.5594 H       1  UNL1        0.0427
@<TRIPOS>BOND
     1    20    19    1
     2    24    22    1
     3    18    16    1
     4    19    22    1
     5    19    16    1
     6    19    21    1
     7    23    22    1
     8    17    16    1
     9    22    25    1
    10    16     2    1
    11    33    31    1
    12    30    28    1
    13     2    28    1
    14     2    10    1
    15    25    26    1
    16    25    28    1
    17    25    27    1
    18    28    29    1
    19    32    31    1
    20    38    37    1
    21    31    34    1
    22    31     3    1
    23    35    34    1
    24    11    10    1
    25    44    43    1
    26    10    12    1
    27    10     4    1
    28    34    37    1
    29    34    36    1
    30     3    43    1
    31     3    13    1
    32    37    39    1
    33    37    40    1
    34    43    40    1
    35    43    45    1
    36     1     4   ar
    37     1     9   ar
    38     4     5   ar
    39    40    41    1
    40    40    42    1
    41    15    13    1
    42    13     9    1
    43    13    14    1
    44     9     7   ar
    45     5     7   ar
    46     5     6    1
    47     7     8    1
