@<TRIPOS>MOLECULE
1,2,3
 27 28 0 0 0
SMALL
GASTEIGER

@<TRIPOS>ATOM
      1 N           1.5012    9.6200   -5.8425 N.ar    1  UNL1       -0.2586
      2 N           3.7076   11.0376   -4.4834 N.ar    1  UNL1       -0.2586
      3 N           1.3075   12.2613   -4.8403 N.3     1  UNL1       -0.2941
      4 C           1.0982    8.5408   -6.5662 C.ar    1  UNL1        0.0280
      5 H           1.7719    8.0674   -7.2647 H       1  UNL1        0.0829
      6 C          -0.2050    8.2229   -6.2579 C.ar    1  UNL1       -0.0419
      7 H          -0.7870    7.4150   -6.6604 H       1  UNL1        0.0633
      8 C          -0.6339    9.1649   -5.2966 C.ar    1  UNL1       -0.0377
      9 H          -1.5993    9.2100   -4.8257 H       1  UNL1        0.0636
     10 C           0.4361   10.0029   -5.0739 C.ar    1  UNL1        0.0553
     11 C           4.7448   10.3555   -3.9320 C.ar    1  UNL1        0.0280
     12 H           5.1928    9.5250   -4.4541 H       1  UNL1        0.0829
     13 C           5.0580   10.8821   -2.7003 C.ar    1  UNL1       -0.0419
     14 H           5.8266   10.5466   -2.0301 H       1  UNL1        0.0633
     15 C           4.1631   11.9497   -2.4781 C.ar    1  UNL1       -0.0377
     16 H           4.1189   12.5861   -1.6128 H       1  UNL1        0.0636
     17 C           3.3559   12.0143   -3.5924 C.ar    1  UNL1        0.0553
     18 C           0.6287   11.1531   -4.1367 C.3     1  UNL1        0.0413
     19 H           1.2736   10.8291   -3.3066 H       1  UNL1        0.0491
     20 H          -0.3317   11.4806   -3.7090 H       1  UNL1        0.0491
     21 C           2.2346   12.9501   -3.9389 C.3     1  UNL1        0.0413
     22 H           1.7240   13.2958   -3.0206 H       1  UNL1        0.0491
     23 H           2.6172   13.8460   -4.4559 H       1  UNL1        0.0491
     24 C           0.3231   13.1848   -5.3816 C.3     1  UNL1       -0.0120
     25 H          -0.2318   13.7002   -4.5799 H       1  UNL1        0.0391
     26 H          -0.3961   12.6398   -5.9962 H       1  UNL1        0.0391
     27 H           0.8112   13.9436   -6.0004 H       1  UNL1        0.0391
@<TRIPOS>BOND
     1     5     4    1
     2     7     6    1
     3     4     6   ar
     4     4     1   ar
     5     6     8   ar
     6    27    24    1
     7    26    24    1
     8     1    10   ar
     9    24     3    1
    10    24    25    1
    11     8    10   ar
    12     8     9    1
    13    10    18    1
    14     3    18    1
    15     3    21    1
    16     2    11   ar
    17     2    17   ar
    18    23    21    1
    19    12    11    1
    20    18    20    1
    21    18    19    1
    22    21    17    1
    23    21    22    1
    24    11    13   ar
    25    17    15   ar
    26    13    15   ar
    27    13    14    1
    28    15    16    1
