@<TRIPOS>MOLECULE
1,3,5
 44 46 0 0 0
SMALL
GASTEIGER

@<TRIPOS>ATOM
      1 N           9.2362    2.7663   -0.2233 N.3     1  UNL1        0.0000
      2 N           8.8891    2.1459   -1.3605 N.pl3   1  UNL1        0.0000
      3 N           7.5955    4.8411   -1.2482 N.3     1  UNL1        0.0000
      4 N           7.5008    3.9784   -2.2725 N.pl3   1  UNL1        0.0000
      5 N           6.3244    2.6856    0.1131 N.3     1  UNL1        0.0000
      6 N           6.4175    2.0953   -1.0872 N.pl3   1  UNL1        0.0000
      7 C          10.4675    2.3707    0.0920 C.3     1  UNL1        0.0000
      8 C          10.9181    1.4609   -0.8698 C.2     1  UNL1        0.0000
      9 H          11.8666    0.9635   -0.8979 H       1  UNL1        0.0000
     10 C           9.8870    1.3442   -1.7816 C.2     1  UNL1        0.0000
     11 C          11.2160    2.8407    1.2874 C.3     1  UNL1        0.0000
     12 H          11.1241    3.9192    1.3992 H       1  UNL1        0.0000
     13 H          12.2663    2.5793    1.1830 H       1  UNL1        0.0000
     14 H          10.8288    2.3720    2.1936 H       1  UNL1        0.0000
     15 C           9.8278    0.5095   -3.0101 C.3     1  UNL1        0.0000
     16 H           8.9805   -0.1733   -2.9730 H       1  UNL1        0.0000
     17 H          10.7433   -0.0696   -3.0977 H       1  UNL1        0.0000
     18 H           9.7205    1.1323   -3.8969 H       1  UNL1        0.0000
     19 C           7.5275    6.0716   -1.7466 C.3     1  UNL1        0.0000
     20 C           7.3833    5.9962   -3.1348 C.2     1  UNL1        0.0000
     21 H           7.3001    6.8133   -3.8226 H       1  UNL1        0.0000
     22 C           7.3705    4.6479   -3.4344 C.2     1  UNL1        0.0000
     23 C           7.6046    7.3125   -0.9329 C.3     1  UNL1        0.0000
     24 H           6.8646    7.3027   -0.1349 H       1  UNL1        0.0000
     25 H           7.4239    8.1754   -1.5697 H       1  UNL1        0.0000
     26 H           8.5894    7.4165   -0.4792 H       1  UNL1        0.0000
     27 C           7.2402    3.9997   -4.7658 C.3     1  UNL1        0.0000
     28 H           8.1141    3.3884   -4.9864 H       1  UNL1        0.0000
     29 H           7.1459    4.7657   -5.5310 H       1  UNL1        0.0000
     30 H           6.3612    3.3580   -4.8005 H       1  UNL1        0.0000
     31 C           5.2196    2.2324    0.7015 C.3     1  UNL1        0.0000
     32 C           4.5902    1.3175   -0.1486 C.2     1  UNL1        0.0000
     33 H           3.6819    0.7801    0.0357 H       1  UNL1        0.0000
     34 C           5.3800    1.2577   -1.2804 C.2     1  UNL1        0.0000
     35 C           4.7614    2.6458    2.0539 C.3     1  UNL1        0.0000
     36 H           5.3897    2.1997    2.8262 H       1  UNL1        0.0000
     37 H           3.7357    2.3160    2.2030 H       1  UNL1        0.0000
     38 H           4.8091    3.7270    2.1664 H       1  UNL1        0.0000
     39 C           5.1778    0.4462   -2.5092 C.3     1  UNL1        0.0000
     40 H           5.0570    1.0876   -3.3809 H       1  UNL1        0.0000
     41 H           4.2850   -0.1632   -2.3965 H       1  UNL1        0.0000
     42 H           6.0306   -0.2069   -2.6866 H       1  UNL1        0.0000
     43 B           7.5541    2.4628   -2.0474 B       1  UNL1        0.0000
     44 H           7.4537    1.8774   -3.0662 H       1  UNL1        0.0000
@<TRIPOS>BOND
     1    29    27    1
     2    28    27    1
     3    30    27    1
     4    27    22    1
     5    18    15    1
     6    21    20    1
     7    22    20    2
     8    22     4    1
     9    40    39    1
    10    20    19    1
    11    17    15    1
    12    44    43    1
    13    15    16    1
    14    15    10    1
    15    42    39    1
    16    39    41    1
    17    39    34    1
    18     4    43    1
    19     4     3    1
    20    43     2    1
    21    43     6    1
    22    10     2    1
    23    10     8    2
    24    19     3    1
    25    19    23    1
    26    25    23    1
    27     2     1    1
    28    34     6    1
    29    34    32    2
    30     6     5    1
    31    23    26    1
    32    23    24    1
    33     9     8    1
    34     8     7    1
    35     1     7    1
    36    32    33    1
    37    32    31    1
    38     7    11    1
    39     5    31    1
    40    31    35    1
    41    13    11    1
    42    11    12    1
    43    11    14    1
    44    35    38    1
    45    35    37    1
    46    35    36    1
