@<TRIPOS>MOLECULE
4,18,32
 44 46 0 0 0
SMALL
GASTEIGER

@<TRIPOS>ATOM
      1 B           8.4713    7.9648   -0.2759 B       1  UNL1        0.0000
      2 H           8.5174    7.6978   -1.4240 H       1  UNL1        0.0000
      3 N           7.0286    8.3068    0.1238 N.pl3   1  UNL1        0.0000
      4 N           6.7024    8.5938    1.3924 N.3     1  UNL1        0.0000
      5 C           5.3930    8.8175    1.4382 C.3     1  UNL1        0.0000
      6 C           4.8596    8.6691    0.1549 C.2     1  UNL1        0.0000
      7 H           3.8359    8.7844   -0.1397 H       1  UNL1        0.0000
      8 C           5.9314    8.3432   -0.6551 C.2     1  UNL1        0.0000
      9 C           4.6513    9.1625    2.6795 C.3     1  UNL1        0.0000
     10 H           5.2764    9.7640    3.3325 H       1  UNL1        0.0000
     11 H           4.3661    8.2548    3.2102 H       1  UNL1        0.0000
     12 H           3.7445    9.7078    2.4259 H       1  UNL1        0.0000
     13 C           5.9297    8.0768   -2.1178 C.3     1  UNL1        0.0000
     14 H           6.5834    8.7740   -2.6393 H       1  UNL1        0.0000
     15 H           4.9191    8.1870   -2.5030 H       1  UNL1        0.0000
     16 H           6.2772    7.0665   -2.3281 H       1  UNL1        0.0000
     17 N           9.3799    9.1646    0.0206 N.pl3   1  UNL1        0.0000
     18 N           9.5794    9.5905    1.2752 N.3     1  UNL1        0.0000
     19 C          10.4322   10.6091    1.2316 C.3     1  UNL1        0.0000
     20 C          10.7935   10.8442   -0.0982 C.2     1  UNL1        0.0000
     21 H          11.4630   11.5959   -0.4653 H       1  UNL1        0.0000
     22 C          10.1024    9.9045   -0.8403 C.2     1  UNL1        0.0000
     23 C          10.9028   11.3534    2.4295 C.3     1  UNL1        0.0000
     24 H          10.1072   11.4122    3.1669 H       1  UNL1        0.0000
     25 H          11.2157   12.3543    2.1396 H       1  UNL1        0.0000
     26 H          11.7552   10.8439    2.8776 H       1  UNL1        0.0000
     27 C          10.1088    9.7097   -2.3142 C.3     1  UNL1        0.0000
     28 H          10.4659    8.7143   -2.5732 H       1  UNL1        0.0000
     29 H          10.7625   10.4473   -2.7730 H       1  UNL1        0.0000
     30 H           9.1061    9.8254   -2.7225 H       1  UNL1        0.0000
     31 N           8.9400    6.7730    0.5667 N.pl3   1  UNL1        0.0000
     32 N           8.9416    6.7676    1.9152 N.3     1  UNL1        0.0000
     33 C           9.3595    5.5670    2.3073 C.3     1  UNL1        0.0000
     34 C           9.6408    4.7837    1.1830 C.2     1  UNL1        0.0000
     35 H           9.9982    3.7735    1.1747 H       1  UNL1        0.0000
     36 C           9.3625    5.5836    0.0956 C.2     1  UNL1        0.0000
     37 C           9.4914    5.0900    3.7097 C.3     1  UNL1        0.0000
     38 H           9.4294    5.9048    4.4197 H       1  UNL1        0.0000
     39 H          10.4437    4.5743    3.8301 H       1  UNL1        0.0000
     40 H           8.6973    4.3748    3.9296 H       1  UNL1        0.0000
     41 C           9.4964    5.2392   -1.3450 C.3     1  UNL1        0.0000
     42 H          10.1822    5.9210   -1.8455 H       1  UNL1        0.0000
     43 H           8.5337    5.2946   -1.8508 H       1  UNL1        0.0000
     44 H           9.8810    4.2261   -1.4353 H       1  UNL1        0.0000
@<TRIPOS>BOND
     1    29    27    1
     2    30    27    1
     3    14    13    1
     4    28    27    1
     5    15    13    1
     6    16    13    1
     7    27    22    1
     8    13     8    1
     9    43    41    1
    10    42    41    1
    11    44    41    1
    12     2     1    1
    13    41    36    1
    14    22    20    2
    15    22    17    1
    16     8     3    1
    17     8     6    2
    18    21    20    1
    19     1    17    1
    20     1     3    1
    21     1    31    1
    22     7     6    1
    23    20    19    1
    24    17    18    1
    25    36    31    1
    26    36    34    2
    27     3     4    1
    28     6     5    1
    29    31    32    1
    30    35    34    1
    31    34    33    1
    32    19    18    1
    33    19    23    1
    34     4     5    1
    35     5     9    1
    36    32    33    1
    37    25    23    1
    38    33    37    1
    39    12     9    1
    40    23    26    1
    41    23    24    1
    42     9    11    1
    43     9    10    1
    44    37    39    1
    45    37    40    1
    46    37    38    1
