@<TRIPOS>MOLECULE
1,5,13
 65 66 0 0 0
SMALL
GASTEIGER

@<TRIPOS>ATOM
      1 N           1.1125    3.2070   -1.8617 N.pl3   1  UNL1       -0.2488
      2 C           0.2870    2.3670   -2.7135 C.3     1  UNL1        0.0442
      3 H           0.9231    1.7423   -3.3676 H       1  UNL1        0.0494
      4 H          -0.3570    2.9598   -3.3891 H       1  UNL1        0.0494
      5 N          -1.3910    2.1613   -0.8936 N.3     1  UNL1       -0.3023
      6 C          -0.5834    1.4218   -1.8764 C.3     1  UNL1        0.0161
      7 H          -1.2275    0.8225   -2.5385 H       1  UNL1        0.0442
      8 H           0.0832    0.7439   -1.3411 H       1  UNL1        0.0442
      9 C          -2.6064    2.6582   -1.5355 C.3     1  UNL1       -0.0126
     10 H          -3.2388    1.8298   -1.8882 H       1  UNL1        0.0391
     11 H          -2.3453    3.2792   -2.3910 H       1  UNL1        0.0391
     12 H          -3.1846    3.2586   -0.8335 H       1  UNL1        0.0391
     13 N           0.1854    2.1884    1.5027 N.pl3   1  UNL1       -0.2488
     14 C          -1.7529    1.3208    0.2569 C.3     1  UNL1        0.0161
     15 H          -2.2306    0.3849   -0.0766 H       1  UNL1        0.0442
     16 H          -2.4802    1.8830    0.8514 H       1  UNL1        0.0442
     17 C          -0.5501    0.9838    1.1532 C.3     1  UNL1        0.0442
     18 H          -0.9451    0.5127    2.0700 H       1  UNL1        0.0494
     19 H           0.0575    0.2069    0.6562 H       1  UNL1        0.0494
     20 C           1.9169    4.0996   -2.6136 C.ar    1  UNL1        0.0541
     21 C           1.4098    5.3068   -3.1295 C.ar    1  UNL1       -0.0248
     22 C          -0.8675    5.7117   -4.1454 C.3     1  UNL1       -0.0612
     23 H          -1.8871    6.0235   -3.9251 H       1  UNL1        0.0233
     24 H          -0.8949    4.7117   -4.5749 H       1  UNL1        0.0233
     25 H          -0.4586    6.3834   -4.8966 H       1  UNL1        0.0233
     26 C          -0.0107    5.7448   -2.8781 C.3     1  UNL1       -0.0287
     27 H          -0.4622    5.1100   -2.1002 H       1  UNL1        0.0311
     28 H           0.0064    6.7689   -2.4966 H       1  UNL1        0.0311
     29 C           2.2433    6.1517   -3.8489 C.ar    1  UNL1       -0.0568
     30 H           1.8480    7.0852   -4.2252 H       1  UNL1        0.0621
     31 C           3.5683    5.8299   -4.0746 C.ar    1  UNL1       -0.0611
     32 H           4.2041    6.4998   -4.6342 H       1  UNL1        0.0618
     33 C           4.0745    4.6512   -3.5607 C.ar    1  UNL1       -0.0568
     34 H           5.1142    4.3988   -3.7165 H       1  UNL1        0.0621
     35 C           3.2679    3.7820   -2.8424 C.ar    1  UNL1       -0.0248
     36 C           4.1051    1.4934   -3.4438 C.3     1  UNL1       -0.0612
     37 H           4.5274    0.5726   -3.0460 H       1  UNL1        0.0233
     38 H           4.7984    1.9023   -4.1754 H       1  UNL1        0.0233
     39 H           3.1753    1.2546   -3.9555 H       1  UNL1        0.0233
     40 C           3.8536    2.4978   -2.3184 C.3     1  UNL1       -0.0287
     41 H           4.8005    2.7095   -1.8144 H       1  UNL1        0.0311
     42 H           3.1600    2.0654   -1.5931 H       1  UNL1        0.0311
     43 C           1.1487    2.0166    2.5119 C.ar    1  UNL1        0.0541
     44 C          -0.0393    3.8377    3.8100 C.3     1  UNL1       -0.0287
     45 H           0.2143    4.5070    4.6356 H       1  UNL1        0.0311
     46 H          -0.0674    4.4301    2.8871 H       1  UNL1        0.0311
     47 C           1.0304    2.7862    3.6897 C.ar    1  UNL1       -0.0248
     48 C          -1.4204    3.2329    4.0653 C.3     1  UNL1       -0.0612
     49 H          -2.1660    4.0187    4.1719 H       1  UNL1        0.0233
     50 H          -1.4112    2.6380    4.9769 H       1  UNL1        0.0233
     51 H          -1.7046    2.5920    3.2356 H       1  UNL1        0.0233
     52 C           1.9041    2.5778    4.7431 C.ar    1  UNL1       -0.0568
     53 H           1.7931    3.1638    5.6451 H       1  UNL1        0.0621
     54 C           2.8995    1.6206    4.6646 C.ar    1  UNL1       -0.0611
     55 H           3.5537    1.4415    5.5050 H       1  UNL1        0.0618
     56 C           3.0731    0.9204    3.4859 C.ar    1  UNL1       -0.0568
     57 H           3.8832    0.2108    3.4140 H       1  UNL1        0.0621
     58 C           2.2388    1.1240    2.3964 C.ar    1  UNL1       -0.0248
     59 C           4.0489    0.3533    0.7836 C.3     1  UNL1       -0.0612
     60 H           4.2042    0.0550   -0.2512 H       1  UNL1        0.0233
     61 H           4.5137   -0.3960    1.4189 H       1  UNL1        0.0233
     62 H           4.5458    1.3067    0.9475 H       1  UNL1        0.0233
     63 C           2.5525    0.4804    1.0664 C.3     1  UNL1       -0.0287
     64 H           2.1086    1.1109    0.2799 H       1  UNL1        0.0311
     65 H           2.0987   -0.5153    1.0041 H       1  UNL1        0.0311
@<TRIPOS>BOND
     1    25    22    1
     2    32    31    1
     3    24    22    1
     4    30    29    1
     5    38    36    1
     6    22    23    1
     7    22    26    1
     8    31    29   ar
     9    31    33   ar
    10    39    36    1
    11    29    21   ar
    12    34    33    1
    13    33    35   ar
    14    36    37    1
    15    36    40    1
    16     4     2    1
    17     3     2    1
    18    21    26    1
    19    21    20   ar
    20    26    28    1
    21    26    27    1
    22    35    20   ar
    23    35    40    1
    24     2     6    1
    25     2     1    1
    26    20     1    1
    27     7     6    1
    28    11     9    1
    29    40    41    1
    30    40    42    1
    31    10     9    1
    32     6     8    1
    33     6     5    1
    34     9     5    1
    35     9    12    1
    36     5    14    1
    37    60    59    1
    38    15    14    1
    39    14    16    1
    40    14    17    1
    41    64    63    1
    42    19    17    1
    43    59    62    1
    44    59    63    1
    45    59    61    1
    46    65    63    1
    47    63    58    1
    48    17    13    1
    49    17    18    1
    50    13    43    1
    51    58    43   ar
    52    58    56   ar
    53    43    47   ar
    54    46    44    1
    55    51    48    1
    56    57    56    1
    57    56    54   ar
    58    47    44    1
    59    47    52   ar
    60    44    48    1
    61    44    45    1
    62    48    49    1
    63    48    50    1
    64    54    52   ar
    65    54    55    1
    66    52    53    1
