@<TRIPOS>MOLECULE
2,4,32
 47 49 0 0 0
SMALL
GASTEIGER

@<TRIPOS>ATOM
      1 SI          2.9787    3.4497    5.5258 Si      1  UNL1        0.0000
      2 N           2.3423    1.9912    3.3725 N.3     1  UNL1        0.0000
      3 N           2.2551    2.0538    4.7453 N.pl3   1  UNL1        0.0000
      4 N           4.8147    3.4714    3.5777 N.3     1  UNL1        0.0000
      5 N           4.6345    3.4654    4.9427 N.pl3   1  UNL1        0.0000
      6 C           1.6156    0.4156    1.5963 C.3     1  UNL1        0.0000
      7 H           2.5976    0.3080    1.1405 H       1  UNL1        0.0000
      8 H           1.0635    1.1480    1.0108 H       1  UNL1        0.0000
      9 H           1.0956   -0.5384    1.5614 H       1  UNL1        0.0000
     10 C           1.7440    0.8675    3.0018 C.3     1  UNL1        0.0000
     11 C           1.2575    0.1827    4.1309 C.2     1  UNL1        0.0000
     12 H           0.7321   -0.7507    4.1345 H       1  UNL1        0.0000
     13 C           1.5883    0.9443    5.2175 C.2     1  UNL1        0.0000
     14 C           1.3106    0.6831    6.6513 C.3     1  UNL1        0.0000
     15 H           0.7711   -0.2564    6.7369 H       1  UNL1        0.0000
     16 H           0.6989    1.4721    7.0859 H       1  UNL1        0.0000
     17 H           2.2323    0.6042    7.2255 H       1  UNL1        0.0000
     18 C           6.7491    3.4956    2.0210 C.3     1  UNL1        0.0000
     19 H           6.4231    4.3666    1.4567 H       1  UNL1        0.0000
     20 H           7.8317    3.5142    2.1185 H       1  UNL1        0.0000
     21 C           6.1233    3.4850    3.3642 C.3     1  UNL1        0.0000
     22 C           6.8138    3.4869    4.5906 C.2     1  UNL1        0.0000
     23 H           7.8764    3.4965    4.7251 H       1  UNL1        0.0000
     24 C           5.8607    3.4740    5.5712 C.2     1  UNL1        0.0000
     25 C           6.0456    3.4668    7.0433 C.3     1  UNL1        0.0000
     26 H           5.5941    4.3439    7.5039 H       1  UNL1        0.0000
     27 H           5.6080    2.5766    7.4922 H       1  UNL1        0.0000
     28 C           2.8222    3.4516    7.4047 C.3     1  UNL1        0.0000
     29 H           3.2864    4.3293    7.8343 H       1  UNL1        0.0000
     30 H           1.7843    3.4450    7.7100 H       1  UNL1        0.0000
     31 N           2.2259    4.8281    4.7414 N.pl3   1  UNL1        0.0000
     32 N           2.2997    4.8807    3.3676 N.3     1  UNL1        0.0000
     33 H           3.2986    2.5819    7.8371 H       1  UNL1        0.0000
     34 H           6.4536    2.6131    1.4574 H       1  UNL1        0.0000
     35 H           7.1102    3.4737    7.2615 H       1  UNL1        0.0000
     36 C           1.6712    5.9863    2.9924 C.3     1  UNL1        0.0000
     37 C           1.5188    6.4215    1.5840 C.3     1  UNL1        0.0000
     38 H           2.4938    6.5733    1.1258 H       1  UNL1        0.0000
     39 H           1.0022    5.6592    1.0049 H       1  UNL1        0.0000
     40 H           0.9541    7.3494    1.5434 H       1  UNL1        0.0000
     41 C           1.1798    6.6702    4.1200 C.2     1  UNL1        0.0000
     42 H           0.6331    7.5913    4.1203 H       1  UNL1        0.0000
     43 C           1.5388    5.9265    5.2101 C.2     1  UNL1        0.0000
     44 C           1.2714    6.1962    6.6444 C.3     1  UNL1        0.0000
     45 H           0.7218    7.1301    6.7276 H       1  UNL1        0.0000
     46 H           0.6732    5.4040    7.0916 H       1  UNL1        0.0000
     47 H           2.1977    6.2905    7.2087 H       1  UNL1        0.0000
@<TRIPOS>BOND
     1    39    37    1
     2     8     6    1
     3    38    37    1
     4     7     6    1
     5    19    18    1
     6    34    18    1
     7    40    37    1
     8     9     6    1
     9    37    36    1
    10     6    10    1
    11    18    20    1
    12    18    21    1
    13    36    32    1
    14    36    41    1
    15    10     2    1
    16    10    11    1
    17    21     4    1
    18    21    22    1
    19    32    31    1
    20     2     3    1
    21     4     5    1
    22    41    42    1
    23    41    43    2
    24    11    12    1
    25    11    13    2
    26    22    23    1
    27    22    24    2
    28    31    43    1
    29    31     1    1
    30     3    13    1
    31     3     1    1
    32     5     1    1
    33     5    24    1
    34    43    44    1
    35    13    14    1
    36     1    28    1
    37    24    25    1
    38    44    45    1
    39    44    46    1
    40    44    47    1
    41    14    15    1
    42    14    16    1
    43    14    17    1
    44    25    35    1
    45    25    27    1
    46    25    26    1
    47    28    30    1
    48    28    29    1
    49    28    33    1
