@<TRIPOS>MOLECULE
27,29,40
 47 49 0 0 0
SMALL
GASTEIGER

@<TRIPOS>ATOM
      1 SI         12.5319   10.6247   -0.5868 Si      1  UNL1        0.0000
      2 C          16.1409   13.7225    1.3729 C.3     1  UNL1        0.0000
      3 H          16.7761   13.7076    0.4902 H       1  UNL1        0.0000
      4 H          16.5963   13.0680    2.1139 H       1  UNL1        0.0000
      5 H          16.0945   14.7323    1.7731 H       1  UNL1        0.0000
      6 C          14.7772   13.2497    1.0370 C.3     1  UNL1        0.0000
      7 C          13.5688   13.8991    1.3651 C.2     1  UNL1        0.0000
      8 H          13.4639   14.8222    1.8980 H       1  UNL1        0.0000
      9 C          12.5649   13.1160    0.8690 C.2     1  UNL1        0.0000
     10 C          11.1006   13.3444    0.9437 C.3     1  UNL1        0.0000
     11 H          10.9200   14.2667    1.4896 H       1  UNL1        0.0000
     12 H          10.5987   12.5322    1.4664 H       1  UNL1        0.0000
     13 H          10.6631   13.4421   -0.0483 H       1  UNL1        0.0000
     14 C          16.4758   10.5833   -3.8905 C.3     1  UNL1        0.0000
     15 H          17.0280    9.8030   -3.3730 H       1  UNL1        0.0000
     16 H          16.9569   11.5315   -3.6598 H       1  UNL1        0.0000
     17 C          15.0627   10.6008   -3.4444 C.3     1  UNL1        0.0000
     18 C          13.9282   10.6262   -4.2821 C.2     1  UNL1        0.0000
     19 H          13.9251   10.6322   -5.3532 H       1  UNL1        0.0000
     20 C          12.8404   10.6426   -3.4554 C.2     1  UNL1        0.0000
     21 C          11.4047   10.6783   -3.8287 C.3     1  UNL1        0.0000
     22 H          11.3279   10.6977   -4.9127 H       1  UNL1        0.0000
     23 H          10.9153   11.5670   -3.4342 H       1  UNL1        0.0000
     24 C          10.6505   10.6189   -0.7040 C.3     1  UNL1        0.0000
     25 H          10.1974   10.6085    0.2784 H       1  UNL1        0.0000
     26 H          10.2948    9.7485   -1.2392 H       1  UNL1        0.0000
     27 N          14.5194   12.1376    0.3795 N.3     1  UNL1        0.0000
     28 N          13.1601   12.0335    0.2625 N.pl3   1  UNL1        0.0000
     29 N          14.6833   10.6010   -2.1829 N.3     1  UNL1        0.0000
     30 N          13.3153   10.6254   -2.1637 N.pl3   1  UNL1        0.0000
     31 H          10.2880   11.4957   -1.2239 H       1  UNL1        0.0000
     32 N          13.1665    9.2227    0.2690 N.3     1  UNL1        0.0000
     33 C          12.5774    8.1252    0.8546 C.3     1  UNL1        0.0000
     34 C          13.5827    7.3650    1.3823 C.2     1  UNL1        0.0000
     35 C          14.7858    8.0417    1.0924 C.2     1  UNL1        0.0000
     36 C          16.1493    7.5952    1.4632 C.3     1  UNL1        0.0000
     37 H          16.7186    7.3379    0.5720 H       1  UNL1        0.0000
     38 H          16.6848    8.3929    1.9730 H       1  UNL1        0.0000
     39 H          16.0901    6.7240    2.1108 H       1  UNL1        0.0000
     40 N          14.5237    9.1485    0.4277 N.pl3   1  UNL1        0.0000
     41 H          16.5233   10.4147   -4.9631 H       1  UNL1        0.0000
     42 H          10.8767    9.7995   -3.4632 H       1  UNL1        0.0000
     43 H          13.4821    6.4391    1.9112 H       1  UNL1        0.0000
     44 C          11.1177    7.8592    0.8777 C.3     1  UNL1        0.0000
     45 H          10.9438    6.9216    1.3991 H       1  UNL1        0.0000
     46 H          10.5781    8.6470    1.4000 H       1  UNL1        0.0000
     47 H          10.7152    7.7712   -0.1298 H       1  UNL1        0.0000
@<TRIPOS>BOND
     1    19    18    1
     2    41    14    1
     3    22    21    1
     4    18    20    2
     5    18    17    1
     6    14    16    1
     7    14    17    1
     8    14    15    1
     9    21    42    1
    10    21    20    1
    11    21    23    1
    12    20    30    1
    13    17    29    1
    14    29    30    1
    15    30     1    1
    16    26    24    1
    17    31    24    1
    18    24     1    1
    19    24    25    1
    20     1    28    1
    21     1    32    1
    22    47    44    1
    23    13    10    1
    24    28    27    1
    25    28     9    1
    26    32    40    1
    27    32    33    1
    28    27     6    1
    29    40    35    1
    30     3     2    1
    31    37    36    1
    32    33    44    1
    33    33    34    1
    34     9    10    1
    35     9     7    2
    36    44    45    1
    37    44    46    1
    38    10    12    1
    39    10    11    1
    40     6     7    1
    41     6     2    1
    42    35    34    2
    43    35    36    1
    44     7     8    1
    45     2     5    1
    46     2     4    1
    47    34    43    1
    48    36    38    1
    49    36    39    1
