@<TRIPOS>MOLECULE
1,2,3
 49 49 0 0 0
SMALL
GASTEIGER

@<TRIPOS>ATOM
      1 N          -1.8696    2.4489    2.5130 N.3     1  UNL1        0.0000
      2 N           0.6609    4.7054    2.5161 N.3     1  UNL1        0.0000
      3 N           0.2878    2.5186    4.1416 N.pl3   1  UNL1        0.0000
      4 C           0.4778    2.1889    5.4108 C.3     1  UNL1        0.0000
      5 C           1.2840    1.1379    5.8014 C.2     1  UNL1        0.0000
      6 C           1.9188    0.4062    4.8064 C.2     1  UNL1        0.0000
      7 C           1.7167    0.7495    3.4835 C.2     1  UNL1        0.0000
      8 C           0.8819    1.8251    3.1710 C.2     1  UNL1        0.0000
      9 C           0.5728    2.2599    1.7665 C.3     1  UNL1        0.0000
     10 C          -0.9571    2.0731    1.4791 C.3     1  UNL1        0.0000
     11 C           1.0263    3.7378    1.5300 C.3     1  UNL1        0.0000
     12 C           1.3137    1.4211    0.7153 C.3     1  UNL1        0.0000
     13 SI         -2.9554    1.2794    3.1372 Si      1  UNL1        0.0000
     14 C          -3.9646    2.2004    4.4576 C.3     1  UNL1        0.0000
     15 C          -4.1079    0.5744    1.7744 C.3     1  UNL1        0.0000
     16 C          -2.0534   -0.2285    3.9201 C.3     1  UNL1        0.0000
     17 SI          1.7939    5.8343    3.1613 Si      1  UNL1        0.0000
     18 C           0.9207    7.5329    3.1521 C.3     1  UNL1        0.0000
     19 C           3.4028    5.9304    2.1252 C.3     1  UNL1        0.0000
     20 C           2.2628    5.3243    4.9494 C.3     1  UNL1        0.0000
     21 H          -0.0496    2.8060    6.1260 H       1  UNL1        0.0000
     22 H           1.4137    0.8954    6.8441 H       1  UNL1        0.0000
     23 H           2.5605   -0.4253    5.0595 H       1  UNL1        0.0000
     24 H           2.2057    0.1826    2.7089 H       1  UNL1        0.0000
     25 H          -1.1675    2.6499    0.5595 H       1  UNL1        0.0000
     26 H          -1.0933    1.0151    1.2157 H       1  UNL1        0.0000
     27 H           2.1163    3.7133    1.4064 H       1  UNL1        0.0000
     28 H           0.6074    4.0271    0.5458 H       1  UNL1        0.0000
     29 H           1.0494    1.7760   -0.2799 H       1  UNL1        0.0000
     30 H           2.3931    1.5107    0.8257 H       1  UNL1        0.0000
     31 H           1.0366    0.3702    0.7773 H       1  UNL1        0.0000
     32 H          -4.7905    1.5967    4.8176 H       1  UNL1        0.0000
     33 H          -4.3662    3.1251    4.0537 H       1  UNL1        0.0000
     34 H          -3.3377    2.4599    5.3040 H       1  UNL1        0.0000
     35 H          -4.8208   -0.1288    2.1926 H       1  UNL1        0.0000
     36 H          -4.6707    1.3631    1.2844 H       1  UNL1        0.0000
     37 H          -3.5439    0.0498    1.0080 H       1  UNL1        0.0000
     38 H          -2.7583   -0.9945    4.2267 H       1  UNL1        0.0000
     39 H          -1.4791    0.0615    4.7956 H       1  UNL1        0.0000
     40 H          -1.3636   -0.6849    3.2146 H       1  UNL1        0.0000
     41 H           1.3680    8.2151    3.8668 H       1  UNL1        0.0000
     42 H          -0.1241    7.3887    3.4131 H       1  UNL1        0.0000
     43 H           0.9618    8.0076    2.1769 H       1  UNL1        0.0000
     44 H           4.0225    6.7516    2.4680 H       1  UNL1        0.0000
     45 H           3.1935    6.0941    1.0729 H       1  UNL1        0.0000
     46 H           3.9927    5.0228    2.2107 H       1  UNL1        0.0000
     47 H           2.8090    6.1099    5.4609 H       1  UNL1        0.0000
     48 H           1.3555    5.1206    5.5088 H       1  UNL1        0.0000
     49 H           2.8785    4.4288    4.9706 H       1  UNL1        0.0000
@<TRIPOS>BOND
     1    29    12    1
     2    28    11    1
     3    25    10    1
     4    12    31    1
     5    12    30    1
     6    12     9    1
     7    37    15    1
     8    45    19    1
     9    26    10    1
    10    36    15    1
    11    27    11    1
    12    10     9    1
    13    10     1    1
    14    11     9    1
    15    11     2    1
    16     9     8    1
    17    15    35    1
    18    15    13    1
    19    19    46    1
    20    19    44    1
    21    19    17    1
    22    43    18    1
    23     1    13    1
    24     2    17    1
    25    24     7    1
    26    13    16    1
    27    13    14    1
    28    18    17    1
    29    18    42    1
    30    18    41    1
    31    17    20    1
    32     8     7    2
    33     8     3    1
    34    40    16    1
    35     7     6    1
    36    16    38    1
    37    16    39    1
    38    33    14    1
    39     3     4    1
    40    14    32    1
    41    14    34    1
    42     6    23    1
    43     6     5    2
    44    20    49    1
    45    20    47    1
    46    20    48    1
    47     4     5    1
    48     4    21    1
    49     5    22    1
