@<TRIPOS>MOLECULE
1,2,3
 79 81 0 0 0
SMALL
GASTEIGER

@<TRIPOS>ATOM
      1 N          14.6435    7.0964    2.9339 N.pl3   1  UNL1       -0.2171
      2 N          15.3042    5.4997    1.1609 N.pl3   1  UNL1       -0.2154
      3 N          15.7032    3.2441    2.1581 N.pl3   1  UNL1       -0.2352
      4 C          14.3409    9.0859    1.4674 C.3     1  UNL1       -0.0228
      5 H          13.9749    9.5809    2.3633 H       1  UNL1        0.0291
      6 H          13.5990    9.1817    0.6768 H       1  UNL1        0.0291
      7 H          15.2491    9.5888    1.1345 H       1  UNL1        0.0291
      8 C          14.6499    7.6435    1.7436 C.2     1  UNL1        0.0510
      9 C          14.9861    6.7491    0.6901 C.2     1  UNL1        0.0720
     10 C          14.9577    7.0349   -0.6710 C.2     1  UNL1       -0.0371
     11 H          14.7212    8.0320   -1.0066 H       1  UNL1        0.0637
     12 C          15.2239    6.0325   -1.5904 C.2     1  UNL1       -0.0583
     13 H          15.2037    6.2392   -2.6489 H       1  UNL1        0.0619
     14 C          15.5067    4.7574   -1.1269 C.2     1  UNL1       -0.0405
     15 H          15.7057    3.9585   -1.8232 H       1  UNL1        0.0634
     16 C          15.5362    4.5083    0.2420 C.2     1  UNL1        0.0586
     17 C          15.7864    3.2473    0.8540 C.3     1  UNL1        0.1181
     18 C          16.1138    2.0457    0.0164 C.3     1  UNL1       -0.0340
     19 H          16.1795    1.1556    0.6365 H       1  UNL1        0.0255
     20 H          17.0681    2.1977   -0.4874 H       1  UNL1        0.0255
     21 H          15.3515    1.8936   -0.7463 H       1  UNL1        0.0255
     22 C          14.1000    7.8188    4.0130 C.ar    1  UNL1        0.0602
     23 C          14.9060    8.6120    4.8417 C.ar    1  UNL1       -0.0216
     24 C          14.3360    9.2577    5.9297 C.ar    1  UNL1       -0.0565
     25 H          14.9562    9.8617    6.5746 H       1  UNL1        0.0621
     26 C          12.9856    9.1494    6.1942 C.ar    1  UNL1       -0.0611
     27 H          12.5552    9.6542    7.0462 H       1  UNL1        0.0618
     28 C          12.1845    8.4104    5.3454 C.ar    1  UNL1       -0.0565
     29 H          11.1236    8.3601    5.5359 H       1  UNL1        0.0621
     30 C          12.7128    7.7457    4.2492 C.ar    1  UNL1       -0.0216
     31 C          11.7771    7.0243    3.3005 C.3     1  UNL1       -0.0197
     32 H          12.3776    6.4028    2.6275 H       1  UNL1        0.0344
     33 C          11.0010    8.0436    2.4591 C.3     1  UNL1       -0.0586
     34 H          10.4015    8.6872    3.0998 H       1  UNL1        0.0235
     35 H          10.3358    7.5284    1.7693 H       1  UNL1        0.0235
     36 H          11.6749    8.6699    1.8832 H       1  UNL1        0.0235
     37 C          10.7777    6.1196    4.0291 C.3     1  UNL1       -0.0586
     38 H          11.2775    5.4757    4.7480 H       1  UNL1        0.0235
     39 H          10.2616    5.4905    3.3068 H       1  UNL1        0.0235
     40 H          10.0292    6.7058    4.5567 H       1  UNL1        0.0235
     41 C          16.3733    8.8081    4.5436 C.3     1  UNL1       -0.0197
     42 H          16.6075    8.2556    3.6311 H       1  UNL1        0.0344
     43 C          17.2425    8.2653    5.6799 C.3     1  UNL1       -0.0586
     44 H          17.1009    8.8471    6.5879 H       1  UNL1        0.0235
     45 H          18.2942    8.3137    5.4040 H       1  UNL1        0.0235
     46 H          16.9850    7.2309    5.8962 H       1  UNL1        0.0235
     47 C          16.6902   10.2855    4.2936 C.3     1  UNL1       -0.0586
     48 H          16.0679   10.6836    3.4952 H       1  UNL1        0.0235
     49 H          17.7338   10.3973    4.0058 H       1  UNL1        0.0235
     50 H          16.5188   10.8809    5.1871 H       1  UNL1        0.0235
     51 C          15.8443    2.0493    2.8842 C.ar    1  UNL1        0.0557
     52 C          14.6945    1.3053    3.2139 C.ar    1  UNL1       -0.0219
     53 C          14.8164    0.2218    4.0705 C.ar    1  UNL1       -0.0565
     54 H          13.9389   -0.3476    4.3355 H       1  UNL1        0.0621
     55 C          16.0435   -0.1535    4.5822 C.ar    1  UNL1       -0.0611
     56 H          16.1172   -0.9840    5.2684 H       1  UNL1        0.0618
     57 C          17.1808    0.5058    4.1613 C.ar    1  UNL1       -0.0565
     58 H          18.1461    0.1608    4.4998 H       1  UNL1        0.0621
     59 C          17.1086    1.5875    3.2948 C.ar    1  UNL1       -0.0219
     60 C          13.3557    1.5834    2.5622 C.3     1  UNL1       -0.0197
     61 H          13.3929    2.5761    2.1018 H       1  UNL1        0.0344
     62 C          13.1067    0.5503    1.4557 C.3     1  UNL1       -0.0586
     63 H          13.8816    0.5911    0.6966 H       1  UNL1        0.0235
     64 H          12.1475    0.7403    0.9784 H       1  UNL1        0.0235
     65 H          13.0912   -0.4547    1.8726 H       1  UNL1        0.0235
     66 C          12.1825    1.5390    3.5464 C.3     1  UNL1       -0.0586
     67 H          11.9551    0.5158    3.8363 H       1  UNL1        0.0235
     68 H          11.2945    1.9569    3.0762 H       1  UNL1        0.0235
     69 H          12.3970    2.1089    4.4457 H       1  UNL1        0.0235
     70 C          18.3918    2.1511    2.7218 C.3     1  UNL1       -0.0197
     71 H          18.1404    2.9988    2.0798 H       1  UNL1        0.0344
     72 C          19.3806    2.6244    3.7893 C.3     1  UNL1       -0.0586
     73 H          18.9391    3.3784    4.4333 H       1  UNL1        0.0235
     74 H          20.2572    3.0553    3.3088 H       1  UNL1        0.0235
     75 H          19.7093    1.7956    4.4118 H       1  UNL1        0.0235
     76 C          19.0765    1.0839    1.8568 C.3     1  UNL1       -0.0586
     77 H          19.4186    0.2534    2.4700 H       1  UNL1        0.0235
     78 H          19.9400    1.5128    1.3522 H       1  UNL1        0.0235
     79 H          18.3995    0.6897    1.1038 H       1  UNL1        0.0235
@<TRIPOS>BOND
     1    13    12    1
     2    15    14    1
     3    12    14    1
     4    12    10    2
     5    14    16    2
     6    11    10    1
     7    21    18    1
     8    10     9    1
     9    20    18    1
    10    18    19    1
    11    18    17    1
    12    16    17    1
    13    16     2    1
    14     6     4    1
    15     9     2    1
    16     9     8    2
    17    63    62    1
    18    17     3    1
    19    64    62    1
    20    79    76    1
    21     7     4    1
    22    78    76    1
    23    62    65    1
    24    62    60    1
    25     4     8    1
    26     4     5    1
    27     8     1    1
    28    35    33    1
    29    76    77    1
    30    76    70    1
    31    36    33    1
    32    71    70    1
    33    61    60    1
    34     3    51    1
    35    33    34    1
    36    33    31    1
    37    60    52    1
    38    60    66    1
    39    32    31    1
    40    70    59    1
    41    70    72    1
    42    51    52   ar
    43    51    59   ar
    44     1    22    1
    45    68    66    1
    46    52    53   ar
    47    59    57   ar
    48    31    37    1
    49    31    30    1
    50    39    37    1
    51    74    72    1
    52    48    47    1
    53    66    67    1
    54    66    69    1
    55    42    41    1
    56    72    75    1
    57    72    73    1
    58    49    47    1
    59    22    30   ar
    60    22    23   ar
    61    37    40    1
    62    37    38    1
    63    53    54    1
    64    53    55   ar
    65    57    58    1
    66    57    55   ar
    67    30    28   ar
    68    47    41    1
    69    47    50    1
    70    41    23    1
    71    41    43    1
    72    55    56    1
    73    23    24   ar
    74    28    29    1
    75    28    26   ar
    76    45    43    1
    77    43    46    1
    78    43    44    1
    79    24    26   ar
    80    24    25    1
    81    26    27    1
