@<TRIPOS>MOLECULE
2,3,4
 51 54 0 0 0
SMALL
GASTEIGER

@<TRIPOS>ATOM
      1 SI          6.5596   10.7302    8.6400 Si      1  UNL1        0.0000
      2 N           9.1145   11.1408    9.6198 N.pl3   1  UNL1        0.0000
      3 N           6.8638    8.9432   10.6544 N.pl3   1  UNL1        0.0000
      4 N           8.2048    8.8287    7.5498 N.pl3   1  UNL1        0.0000
      5 C           7.9178   11.7346    9.5044 C.3     1  UNL1        0.0000
      6 C           7.6874   13.0480    9.8963 C.2     1  UNL1        0.0000
      7 H           6.6966   13.4646    9.7980 H       1  UNL1        0.0000
      8 C           8.7318   13.7981   10.4040 C.2     1  UNL1        0.0000
      9 H           8.5832   14.8127   10.7415 H       1  UNL1        0.0000
     10 C           9.9850   13.2116   10.4276 C.2     1  UNL1        0.0000
     11 H          10.8432   13.7724   10.7649 H       1  UNL1        0.0000
     12 C          10.1502   11.8912   10.0215 C.2     1  UNL1        0.0000
     13 C          11.5266   11.3158    9.9938 C.3     1  UNL1        0.0000
     14 H          11.7267   10.8914    9.0114 H       1  UNL1        0.0000
     15 H          11.6370   10.5210   10.7279 H       1  UNL1        0.0000
     16 H          12.2642   12.0868   10.2033 H       1  UNL1        0.0000
     17 C           5.9438    9.3438    9.7709 C.3     1  UNL1        0.0000
     18 C           4.6663    8.8000    9.7204 C.2     1  UNL1        0.0000
     19 H           3.9851    9.1063    8.9414 H       1  UNL1        0.0000
     20 C           4.2992    7.8595   10.6657 C.2     1  UNL1        0.0000
     21 H           3.3239    7.3961   10.6455 H       1  UNL1        0.0000
     22 C           5.2091    7.5618   11.6655 C.2     1  UNL1        0.0000
     23 H           4.9434    6.8854   12.4635 H       1  UNL1        0.0000
     24 C           6.4843    8.1183   11.6361 C.2     1  UNL1        0.0000
     25 C           7.4333    7.8271   12.7510 C.3     1  UNL1        0.0000
     26 H           7.9146    8.7472   13.0759 H       1  UNL1        0.0000
     27 H           8.2119    7.1360   12.4344 H       1  UNL1        0.0000
     28 H           6.9030    7.3849   13.5912 H       1  UNL1        0.0000
     29 C           7.3280    9.7823    7.1907 C.3     1  UNL1        0.0000
     30 C           6.9267    9.9908    5.8783 C.2     1  UNL1        0.0000
     31 H           6.2083   10.7651    5.6603 H       1  UNL1        0.0000
     32 C           7.4416    9.1922    4.8736 C.2     1  UNL1        0.0000
     33 H           7.1571    9.3316    3.8414 H       1  UNL1        0.0000
     34 C           8.3155    8.1906    5.2482 C.2     1  UNL1        0.0000
     35 H           8.7290    7.5212    4.5093 H       1  UNL1        0.0000
     36 C           8.6730    8.0251    6.5856 C.2     1  UNL1        0.0000
     37 C           9.5961    6.8986    6.9084 C.3     1  UNL1        0.0000
     38 H           9.4191    6.5267    7.9125 H       1  UNL1        0.0000
     39 H          10.6310    7.2319    6.8517 H       1  UNL1        0.0000
     40 H           9.4641    6.0917    6.1906 H       1  UNL1        0.0000
     41 C           5.2348   11.9680    8.1050 C.ar    1  UNL1        0.0000
     42 C           5.5324   12.9019    7.1157 C.ar    1  UNL1        0.0000
     43 H           6.5126   12.8963    6.6599 H       1  UNL1        0.0000
     44 C           4.6038   13.8461    6.7188 C.ar    1  UNL1        0.0000
     45 H           4.8549   14.5591    5.9467 H       1  UNL1        0.0000
     46 C           3.3542   13.8808    7.3153 C.ar    1  UNL1        0.0000
     47 H           2.6254   14.6157    7.0065 H       1  UNL1        0.0000
     48 C           3.0499   12.9765    8.3181 C.ar    1  UNL1        0.0000
     49 H           2.0833   13.0083    8.7996 H       1  UNL1        0.0000
     50 C           3.9844   12.0335    8.7089 C.ar    1  UNL1        0.0000
     51 H           3.7414   11.3455    9.5049 H       1  UNL1        0.0000
@<TRIPOS>BOND
     1    33    32    1
     2    35    34    1
     3    32    34    1
     4    32    30    2
     5    34    36    2
     6    31    30    1
     7    30    29    1
     8    45    44    1
     9    40    37    1
    10    36    37    1
    11    36     4    1
    12    43    42    1
    13    44    42   ar
    14    44    46   ar
    15    39    37    1
    16    37    38    1
    17    47    46    1
    18    42    41   ar
    19    29     4    1
    20    29     1    1
    21    46    48   ar
    22    41     1    1
    23    41    50   ar
    24    48    50   ar
    25    48    49    1
    26     1     5    1
    27     1    17    1
    28    50    51    1
    29    19    18    1
    30    14    13    1
    31     5     2    1
    32     5     6    1
    33     2    12    1
    34    18    17    1
    35    18    20    2
    36    17     3    1
    37     7     6    1
    38     6     8    2
    39    13    12    1
    40    13    16    1
    41    13    15    1
    42    12    10    2
    43     8    10    1
    44     8     9    1
    45    10    11    1
    46    21    20    1
    47     3    24    1
    48    20    22    1
    49    24    22    2
    50    24    25    1
    51    22    23    1
    52    27    25    1
    53    25    26    1
    54    25    28    1
