@<TRIPOS>MOLECULE
1,2,3
 79 81 0 0 0
SMALL
GASTEIGER

@<TRIPOS>ATOM
      1 N           4.6575   11.5686    2.9827 N.pl3   1  UNL1       -0.2352
      2 N           2.2431   10.8369    3.4694 N.pl3   1  UNL1       -0.2154
      3 N           1.2627    8.8187    2.1824 N.pl3   1  UNL1       -0.2171
      4 C          -0.9866    8.8567    3.1768 C.3     1  UNL1       -0.0228
      5 H          -1.7057    9.6334    2.9194 H       1  UNL1        0.0291
      6 H          -1.1647    8.5541    4.2078 H       1  UNL1        0.0291
      7 H          -1.1494    7.9993    2.5259 H       1  UNL1        0.0291
      8 C           0.4219    9.3562    3.0012 C.2     1  UNL1        0.0510
      9 C           0.9199   10.4858    3.7386 C.2     1  UNL1        0.0720
     10 C           0.1306   11.1759    4.6469 C.2     1  UNL1       -0.0371
     11 H          -0.8828   10.8514    4.8200 H       1  UNL1        0.0637
     12 C           0.6288   12.2762    5.3280 C.2     1  UNL1       -0.0583
     13 H           0.0205   12.8132    6.0380 H       1  UNL1        0.0619
     14 C           1.9284   12.6687    5.0568 C.2     1  UNL1       -0.0405
     15 H           2.3468   13.5287    5.5547 H       1  UNL1        0.0634
     16 C           2.7059   11.9643    4.1471 C.2     1  UNL1        0.0586
     17 C           4.0459   12.3513    3.8180 C.3     1  UNL1        0.1181
     18 C           4.6578   13.6070    4.3769 C.3     1  UNL1       -0.0340
     19 H           4.7368   13.5524    5.4622 H       1  UNL1        0.0255
     20 H           4.0469   14.4723    4.1230 H       1  UNL1        0.0255
     21 H           5.6538   13.7460    3.9612 H       1  UNL1        0.0255
     22 C           1.0589    7.7338    1.3459 C.ar    1  UNL1        0.0602
     23 C           0.6842    7.9617    0.0112 C.ar    1  UNL1       -0.0216
     24 C           0.7102    6.8974   -0.8740 C.ar    1  UNL1       -0.0565
     25 H           0.4451    7.0491   -1.9084 H       1  UNL1        0.0621
     26 C           1.0779    5.6322   -0.4526 C.ar    1  UNL1       -0.0611
     27 H           1.1053    4.8155   -1.1592 H       1  UNL1        0.0618
     28 C           1.3964    5.4077    0.8744 C.ar    1  UNL1       -0.0565
     29 H           1.6613    4.4104    1.1883 H       1  UNL1        0.0621
     30 C           1.3819    6.4424    1.7947 C.ar    1  UNL1       -0.0216
     31 C           0.2828    9.3589   -0.4117 C.3     1  UNL1       -0.0197
     32 H          -0.2406    9.8236    0.4318 H       1  UNL1        0.0344
     33 C           1.5238   10.2055   -0.7122 C.3     1  UNL1       -0.0586
     34 H           2.1288    9.7293   -1.4804 H       1  UNL1        0.0235
     35 H           2.1349   10.3214    0.1920 H       1  UNL1        0.0235
     36 H           1.2289   11.1939   -1.0586 H       1  UNL1        0.0235
     37 C          -0.6666    9.3736   -1.6099 C.3     1  UNL1       -0.0586
     38 H          -0.1482    9.0969   -2.5246 H       1  UNL1        0.0235
     39 H          -1.0712   10.3748   -1.7457 H       1  UNL1        0.0235
     40 H          -1.4957    8.6865   -1.4548 H       1  UNL1        0.0235
     41 C           1.7211    6.2320    3.2550 C.3     1  UNL1       -0.0197
     42 H           1.0940    6.9108    3.8440 H       1  UNL1        0.0344
     43 C           1.4411    4.8088    3.7382 C.3     1  UNL1       -0.0586
     44 H           0.4404    4.4927    3.4515 H       1  UNL1        0.0235
     45 H           1.5167    4.7683    4.8231 H       1  UNL1        0.0235
     46 H           2.1621    4.1063    3.3276 H       1  UNL1        0.0235
     47 C           3.1833    6.6024    3.5219 C.3     1  UNL1       -0.0586
     48 H           3.8437    6.0243    2.8798 H       1  UNL1        0.0235
     49 H           3.4398    6.4037    4.5603 H       1  UNL1        0.0235
     50 H           3.3464    7.6681    3.3207 H       1  UNL1        0.0235
     51 C           5.9600   11.7642    2.5364 C.ar    1  UNL1        0.0557
     52 C           6.1640   12.2784    1.2490 C.ar    1  UNL1       -0.0219
     53 C           7.4619   12.4319    0.7886 C.ar    1  UNL1       -0.0565
     54 H           7.6370   12.8462   -0.1931 H       1  UNL1        0.0621
     55 C           8.5380   12.0612    1.5721 C.ar    1  UNL1       -0.0611
     56 H           9.5457   12.1910    1.2049 H       1  UNL1        0.0618
     57 C           8.3265   11.5064    2.8231 C.ar    1  UNL1       -0.0565
     58 H           9.1785   11.1973    3.4071 H       1  UNL1        0.0621
     59 C           7.0466   11.3499    3.3271 C.ar    1  UNL1       -0.0219
     60 C           4.9763   12.6466    0.3901 C.3     1  UNL1       -0.0197
     61 H           4.0657   12.3372    0.9229 H       1  UNL1        0.0344
     62 C           4.9192   14.1575    0.1594 C.3     1  UNL1       -0.0586
     63 H           5.7986   14.4968   -0.3836 H       1  UNL1        0.0235
     64 H           4.8797   14.6862    1.1096 H       1  UNL1        0.0235
     65 H           4.0355   14.4196   -0.4187 H       1  UNL1        0.0235
     66 C           5.0045   11.8855   -0.9354 C.3     1  UNL1       -0.0586
     67 H           4.1231   12.1277   -1.5251 H       1  UNL1        0.0235
     68 H           5.0067   10.8151   -0.7416 H       1  UNL1        0.0235
     69 H           5.8873   12.1404   -1.5169 H       1  UNL1        0.0235
     70 C           6.7648   10.6953    4.6622 C.3     1  UNL1       -0.0197
     71 H           5.9646   11.2577    5.1549 H       1  UNL1        0.0344
     72 C           7.9652   10.6754    5.6060 C.3     1  UNL1       -0.0586
     73 H           8.7401   10.0061    5.2401 H       1  UNL1        0.0235
     74 H           7.6533   10.3208    6.5865 H       1  UNL1        0.0235
     75 H           8.3854   11.6724    5.7203 H       1  UNL1        0.0235
     76 C           6.2528    9.2695    4.4259 C.3     1  UNL1       -0.0586
     77 H           5.3535    9.2859    3.8011 H       1  UNL1        0.0235
     78 H           6.0091    8.7932    5.3731 H       1  UNL1        0.0235
     79 H           7.0124    8.6770    3.9219 H       1  UNL1        0.0235
@<TRIPOS>BOND
     1    38    37    1
     2    25    24    1
     3    39    37    1
     4    37    40    1
     5    37    31    1
     6    67    66    1
     7    69    66    1
     8    34    33    1
     9    27    26    1
    10    36    33    1
    11    66    68    1
    12    66    60    1
    13    24    26   ar
    14    24    23   ar
    15    33    31    1
    16    33    35    1
    17    26    28   ar
    18    65    62    1
    19    31    23    1
    20    31    32    1
    21    63    62    1
    22    54    53    1
    23    23    22   ar
    24    62    60    1
    25    62    64    1
    26    60    61    1
    27    60    52    1
    28    53    52   ar
    29    53    55   ar
    30    28    29    1
    31    28    30   ar
    32    56    55    1
    33    52    51   ar
    34    22    30   ar
    35    22     3    1
    36    55    57   ar
    37    30    41    1
    38     3     8    1
    39     7     4    1
    40    51     1    1
    41    51    59   ar
    42    57    59   ar
    43    57    58    1
    44    48    47    1
    45     5     4    1
    46     1    17    1
    47     8     4    1
    48     8     9    2
    49     4     6    1
    50    41    47    1
    51    41    43    1
    52    41    42    1
    53    50    47    1
    54    59    70    1
    55    46    43    1
    56    44    43    1
    57     2     9    1
    58     2    16    1
    59    47    49    1
    60    43    45    1
    61     9    10    1
    62    77    76    1
    63    17    16    1
    64    17    18    1
    65    79    76    1
    66    21    18    1
    67    20    18    1
    68    16    14    2
    69    18    19    1
    70    76    70    1
    71    76    78    1
    72    10    11    1
    73    10    12    2
    74    70    71    1
    75    70    72    1
    76    14    12    1
    77    14    15    1
    78    73    72    1
    79    12    13    1
    80    72    75    1
    81    72    74    1
