@<TRIPOS>MOLECULE
2,3,4
 48 49 0 0 0
SMALL
GASTEIGER

@<TRIPOS>ATOM
      1 SI          3.2863    0.2891    4.5325 Si      1  UNL1        0.0000
      2 N           6.5549    2.3714    1.9244 N.3     1  UNL1        0.0000
      3 N           7.2668    1.4826    4.4835 N.3     1  UNL1        0.0000
      4 N           4.5372    1.0540    3.6758 N.3     1  UNL1        0.0000
      5 C           6.3802    3.1212    0.6781 C.3     1  UNL1        0.0000
      6 C           7.9901    2.2408    2.1900 C.3     1  UNL1        0.0000
      7 C           8.3522    2.0198    3.6679 C.3     1  UNL1        0.0000
      8 C           7.7774    1.3052    5.8425 C.3     1  UNL1        0.0000
      9 C           6.8126    0.1849    3.9675 C.3     1  UNL1        0.0000
     10 C           5.5897    0.3058    3.0248 C.3     1  UNL1        0.0000
     11 C           5.2081   -1.1257    2.6122 C.3     1  UNL1        0.0000
     12 C           5.9655    1.0405    1.7216 C.3     1  UNL1        0.0000
     13 C           2.2500   -0.9908    3.5583 C.ar    1  UNL1        0.0000
     14 C           2.1640   -2.3330    3.9111 C.ar    1  UNL1        0.0000
     15 C           1.4148   -3.2311    3.1711 C.ar    1  UNL1        0.0000
     16 C           0.7296   -2.8027    2.0478 C.ar    1  UNL1        0.0000
     17 C           0.8001   -1.4705    1.6768 C.ar    1  UNL1        0.0000
     18 C           1.5502   -0.5832    2.4270 C.ar    1  UNL1        0.0000
     19 C           2.0483    1.6507    5.0162 C.3     1  UNL1        0.0000
     20 C           3.8068   -0.5937    6.1668 C.3     1  UNL1        0.0000
     21 H           6.8588    4.0954    0.7557 H       1  UNL1        0.0000
     22 H           5.3183    3.2668    0.4934 H       1  UNL1        0.0000
     23 H           6.8235    2.5851   -0.1750 H       1  UNL1        0.0000
     24 H           8.4874    3.1599    1.8685 H       1  UNL1        0.0000
     25 H           8.4059    1.4202    1.5812 H       1  UNL1        0.0000
     26 H           9.2338    1.3523    3.7123 H       1  UNL1        0.0000
     27 H           8.6395    2.9772    4.1107 H       1  UNL1        0.0000
     28 H           8.5906    0.5631    5.8711 H       1  UNL1        0.0000
     29 H           6.9719    0.9715    6.4933 H       1  UNL1        0.0000
     30 H           8.1659    2.2506    6.2216 H       1  UNL1        0.0000
     31 H           6.4768   -0.4211    4.8104 H       1  UNL1        0.0000
     32 H           7.6385   -0.3477    3.4704 H       1  UNL1        0.0000
     33 H           4.9623   -1.7170    3.4870 H       1  UNL1        0.0000
     34 H           6.0300   -1.6073    2.0838 H       1  UNL1        0.0000
     35 H           4.3356   -1.1042    1.9673 H       1  UNL1        0.0000
     36 H           6.6461    0.4165    1.1174 H       1  UNL1        0.0000
     37 H           5.0336    1.1575    1.1648 H       1  UNL1        0.0000
     38 H           2.6920   -2.6870    4.7848 H       1  UNL1        0.0000
     39 H           1.3638   -4.2695    3.4705 H       1  UNL1        0.0000
     40 H           0.1437   -3.5012    1.4666 H       1  UNL1        0.0000
     41 H           0.2668   -1.1252    0.8013 H       1  UNL1        0.0000
     42 H           1.5996    0.4542    2.1322 H       1  UNL1        0.0000
     43 H           1.2642    1.2462    5.6466 H       1  UNL1        0.0000
     44 H           1.5749    2.0826    4.1419 H       1  UNL1        0.0000
     45 H           2.5450    2.4479    5.5620 H       1  UNL1        0.0000
     46 H           4.3175    0.1041    6.8251 H       1  UNL1        0.0000
     47 H           4.4828   -1.4265    5.9901 H       1  UNL1        0.0000
     48 H           2.9491   -0.9788    6.7091 H       1  UNL1        0.0000
@<TRIPOS>BOND
     1    23     5    1
     2    22     5    1
     3     5    21    1
     4     5     2    1
     5    41    17    1
     6    36    12    1
     7    37    12    1
     8    40    16    1
     9    25     6    1
    10    17    16   ar
    11    17    18   ar
    12    12     2    1
    13    12    10    1
    14    24     6    1
    15     2     6    1
    16    35    11    1
    17    16    15   ar
    18    34    11    1
    19    42    18    1
    20     6     7    1
    21    18    13   ar
    22    11    10    1
    23    11    33    1
    24    10     4    1
    25    10     9    1
    26    15    39    1
    27    15    14   ar
    28    32     9    1
    29    13    14   ar
    30    13     1    1
    31     7    26    1
    32     7    27    1
    33     7     3    1
    34     4     1    1
    35    14    38    1
    36     9     3    1
    37     9    31    1
    38    44    19    1
    39     3     8    1
    40     1    19    1
    41     1    20    1
    42    19    45    1
    43    19    43    1
    44     8    28    1
    45     8    30    1
    46     8    29    1
    47    47    20    1
    48    20    48    1
    49    20    46    1
