@<TRIPOS>MOLECULE
2,3,4
 52 54 0 0 0
SMALL
GASTEIGER

@<TRIPOS>ATOM
      1 S           6.9203    1.7790   -0.2583 S.3     1  UNL1       -0.0739
      2 N           5.0401    3.2361   -1.2236 N.pl3   1  UNL1       -0.2129
      3 N           4.1982    1.5130   -3.1767 N.pl3   1  UNL1       -0.2152
      4 N           2.0858    2.4417   -4.5949 N.pl3   1  UNL1       -0.2441
      5 C           7.4729    3.8763    1.5371 C.3     1  UNL1       -0.0321
      6 H           7.1316    4.8716    1.8102 H       1  UNL1        0.0283
      7 H           8.5226    3.9284    1.2491 H       1  UNL1        0.0283
      8 H           7.3971    3.2253    2.4076 H       1  UNL1        0.0283
      9 C           6.6502    3.3529    0.4189 C.2     1  UNL1        0.0042
     10 C           5.6131    3.9507   -0.2340 C.2     1  UNL1        0.0275
     11 H           5.2340    4.9327   -0.0103 H       1  UNL1        0.0810
     12 C           5.6071    2.0690   -1.3762 C.2     1  UNL1        0.1134
     13 C           5.2087    1.1159   -2.3779 C.2     1  UNL1        0.0830
     14 C           5.8199   -0.1278   -2.5219 C.2     1  UNL1       -0.0363
     15 H           6.6242   -0.4165   -1.8624 H       1  UNL1        0.0637
     16 C           5.3718   -0.9738   -3.5218 C.2     1  UNL1       -0.0583
     17 H           5.8212   -1.9464   -3.6558 H       1  UNL1        0.0619
     18 C           4.3414   -0.5541   -4.3480 C.2     1  UNL1       -0.0411
     19 H           3.9737   -1.1867   -5.1411 H       1  UNL1        0.0634
     20 C           3.7763    0.7026   -4.1401 C.2     1  UNL1        0.0502
     21 C           2.6720    1.2014   -5.0280 C.3     1  UNL1        0.0713
     22 H           3.1136    1.2996   -6.0439 H       1  UNL1        0.0544
     23 H           1.9196    0.3943   -5.1160 H       1  UNL1        0.0544
     24 C           0.9280    2.7589   -5.3290 C.ar    1  UNL1        0.0550
     25 C           0.9934    3.6507   -6.4172 C.ar    1  UNL1       -0.0220
     26 C          -0.1600    3.9558   -7.1236 C.ar    1  UNL1       -0.0565
     27 H          -0.1087    4.6301   -7.9668 H       1  UNL1        0.0621
     28 C          -1.3774    3.3978   -6.7813 C.ar    1  UNL1       -0.0611
     29 H          -2.2661    3.6387   -7.3468 H       1  UNL1        0.0618
     30 C          -1.4486    2.5273   -5.7101 C.ar    1  UNL1       -0.0565
     31 H          -2.4031    2.0979   -5.4410 H       1  UNL1        0.0621
     32 C          -0.3161    2.1961   -4.9811 C.ar    1  UNL1       -0.0220
     33 C           2.3145    4.2611   -6.8254 C.3     1  UNL1       -0.0197
     34 H           3.0599    3.9803   -6.0700 H       1  UNL1        0.0344
     35 C           2.7602    3.7166   -8.1850 C.3     1  UNL1       -0.0586
     36 H           2.8340    2.6311   -8.1585 H       1  UNL1        0.0235
     37 H           3.7335    4.1226   -8.4549 H       1  UNL1        0.0235
     38 H           2.0484    3.9882   -8.9621 H       1  UNL1        0.0235
     39 C           2.2414    5.7883   -6.8580 C.3     1  UNL1       -0.0586
     40 H           1.8912    6.1561   -5.8974 H       1  UNL1        0.0235
     41 H           1.5658    6.1366   -7.6370 H       1  UNL1        0.0235
     42 H           3.2284    6.2038   -7.0530 H       1  UNL1        0.0235
     43 C          -0.4327    1.2734   -3.7887 C.3     1  UNL1       -0.0197
     44 H           0.5680    1.1455   -3.3633 H       1  UNL1        0.0344
     45 C          -0.9743   -0.0995   -4.1925 C.3     1  UNL1       -0.0586
     46 H          -0.3753   -0.5304   -4.9931 H       1  UNL1        0.0235
     47 H          -2.0013   -0.0241   -4.5425 H       1  UNL1        0.0235
     48 H          -0.9525   -0.7776   -3.3415 H       1  UNL1        0.0235
     49 C          -1.3082    1.9002   -2.7015 C.3     1  UNL1       -0.0586
     50 H          -0.8628    2.8323   -2.3595 H       1  UNL1        0.0235
     51 H          -1.3854    1.2241   -1.8525 H       1  UNL1        0.0235
     52 H          -2.3103    2.1048   -3.0726 H       1  UNL1        0.0235
@<TRIPOS>BOND
     1    38    35    1
     2    37    35    1
     3    35    36    1
     4    35    33    1
     5    27    26    1
     6    41    39    1
     7    29    28    1
     8    26    28   ar
     9    26    25   ar
    10    42    39    1
    11    39    33    1
    12    39    40    1
    13    33    25    1
    14    33    34    1
    15    28    30   ar
    16    25    24   ar
    17    22    21    1
    18    30    31    1
    19    30    32   ar
    20    24    32   ar
    21    24     4    1
    22    19    18    1
    23    23    21    1
    24    21     4    1
    25    21    20    1
    26    46    45    1
    27    32    43    1
    28    47    45    1
    29    18    20    2
    30    18    16    1
    31    45    43    1
    32    45    48    1
    33    20     3    1
    34    43    44    1
    35    43    49    1
    36    17    16    1
    37    16    14    2
    38     3    13    1
    39    52    49    1
    40    49    50    1
    41    49    51    1
    42    14    13    1
    43    14    15    1
    44    13    12    2
    45    12     2    1
    46    12     1    1
    47     2    10    1
    48     1     9    1
    49    10    11    1
    50    10     9    2
    51     9     5    1
    52     7     5    1
    53     5     6    1
    54     5     8    1
