@<TRIPOS>MOLECULE
2,3,5
 77 81 0 0 0
SMALL
GASTEIGER

@<TRIPOS>ATOM
      1 P          -4.7795   12.1171    7.7011 P.3     1  UNL1        0.0545
      2 N          -3.7305    8.5142    7.5590 N.pl3   1  UNL1       -0.2455
      3 N          -3.2687   11.5387    7.9130 N.3     1  UNL1       -0.0890
      4 N          -2.3408   12.5151    7.9774 N.3     1  UNL1       -0.0130
      5 N          -1.1553   12.0447    7.9679 N.pl3   1  UNL1       -0.1315
      6 C          -5.8993   10.8803    8.3816 C.ar    1  UNL1        0.0016
      7 C          -6.8043   11.2371    9.3800 C.ar    1  UNL1       -0.0523
      8 H          -6.8616   12.2645    9.7117 H       1  UNL1        0.0624
      9 C          -7.6289   10.2834    9.9429 C.ar    1  UNL1       -0.0611
     10 H          -8.3278   10.5636   10.7165 H       1  UNL1        0.0618
     11 C          -7.5534    8.9652    9.5114 C.ar    1  UNL1       -0.0614
     12 H          -8.1929    8.2163    9.9541 H       1  UNL1        0.0618
     13 C          -6.6730    8.6139    8.5078 C.ar    1  UNL1       -0.0564
     14 H          -6.6147    7.5899    8.1677 H       1  UNL1        0.0621
     15 C          -5.8380    9.5609    7.9189 C.ar    1  UNL1       -0.0193
     16 C          -4.8496    9.1310    6.8674 C.3     1  UNL1        0.0571
     17 H          -5.3640    8.4345    6.1924 H       1  UNL1        0.0531
     18 H          -4.5335   10.0174    6.2855 H       1  UNL1        0.0531
     19 C          -3.7791    7.1196    7.5614 C.ar    1  UNL1        0.0539
     20 C          -3.7205    6.4457    8.8031 C.ar    1  UNL1       -0.0276
     21 C          -3.7803    5.0658    8.8616 C.ar    1  UNL1       -0.0570
     22 H          -3.7404    4.5745    9.8247 H       1  UNL1        0.0621
     23 C          -3.9150    4.3087    7.7107 C.ar    1  UNL1       -0.0611
     24 H          -3.9738    3.2319    7.7655 H       1  UNL1        0.0618
     25 C          -3.9612    4.9528    6.4895 C.ar    1  UNL1       -0.0570
     26 H          -4.0390    4.3697    5.5812 H       1  UNL1        0.0621
     27 C          -3.8904    6.3340    6.3905 C.ar    1  UNL1       -0.0276
     28 C          -3.8421    6.9377    5.0128 C.3     1  UNL1       -0.0379
     29 H          -3.3242    6.2601    4.3342 H       1  UNL1        0.0278
     30 H          -3.3173    7.8925    5.0313 H       1  UNL1        0.0278
     31 H          -4.8409    7.0983    4.6011 H       1  UNL1        0.0278
     32 C          -3.6190    7.2462   10.0664 C.3     1  UNL1       -0.0379
     33 H          -3.6370    6.5944   10.9379 H       1  UNL1        0.0278
     34 H          -4.4482    7.9510   10.1318 H       1  UNL1        0.0278
     35 H          -2.6900    7.8192   10.0644 H       1  UNL1        0.0278
     36 C          -5.1233   12.4750    5.9522 C.ar    1  UNL1       -0.0032
     37 C          -6.2835   12.0480    5.3175 C.ar    1  UNL1       -0.0526
     38 H          -7.0161   11.4762    5.8706 H       1  UNL1        0.0624
     39 C          -6.4845   12.3589    3.9850 C.ar    1  UNL1       -0.0611
     40 H          -7.3831   12.0286    3.4860 H       1  UNL1        0.0618
     41 C          -5.5336   13.0902    3.2892 C.ar    1  UNL1       -0.0617
     42 H          -5.6952   13.3287    2.2486 H       1  UNL1        0.0618
     43 C          -4.3773   13.5169    3.9233 C.ar    1  UNL1       -0.0611
     44 H          -3.6394   14.0867    3.3784 H       1  UNL1        0.0618
     45 C          -4.1700   13.2120    5.2560 C.ar    1  UNL1       -0.0526
     46 H          -3.2788   13.5415    5.7760 H       1  UNL1        0.0624
     47 C          -5.0417   13.6916    8.5614 C.ar    1  UNL1       -0.0032
     48 C          -5.5493   14.8141    7.9196 C.ar    1  UNL1       -0.0526
     49 H          -5.8159   14.7683    6.8733 H       1  UNL1        0.0624
     50 C          -5.7145   15.9907    8.6295 C.ar    1  UNL1       -0.0611
     51 H          -6.1085   16.8647    8.1323 H       1  UNL1        0.0618
     52 C          -5.3765   16.0493    9.9720 C.ar    1  UNL1       -0.0617
     53 H          -5.5061   16.9712   10.5190 H       1  UNL1        0.0618
     54 C          -4.8733   14.9284   10.6126 C.ar    1  UNL1       -0.0611
     55 H          -4.6040   14.9722   11.6563 H       1  UNL1        0.0618
     56 C          -4.7058   13.7499    9.9101 C.ar    1  UNL1       -0.0526
     57 H          -4.3100   12.8706   10.3960 H       1  UNL1        0.0624
     58 C          -0.1096   12.9312    8.2000 C.ar    1  UNL1        0.0758
     59 C           1.1803   12.5094    7.8146 C.ar    1  UNL1       -0.0257
     60 C           2.2723   13.3206    8.0658 C.ar    1  UNL1       -0.0540
     61 H           3.2535   12.9862    7.7586 H       1  UNL1        0.0623
     62 C           2.1436   14.5417    8.7129 C.ar    1  UNL1       -0.0498
     63 C           0.8760   14.9347    9.1109 C.ar    1  UNL1       -0.0540
     64 H           0.7576   15.8739    9.6332 H       1  UNL1        0.0623
     65 C          -0.2517   14.1671    8.8660 C.ar    1  UNL1       -0.0257
     66 C          -1.5681   14.6681    9.3680 C.3     1  UNL1       -0.0378
     67 H          -2.2041   14.9982    8.5478 H       1  UNL1        0.0278
     68 H          -1.4173   15.5018   10.0506 H       1  UNL1        0.0278
     69 H          -2.0926   13.8758    9.8978 H       1  UNL1        0.0278
     70 C           1.3911   11.2041    7.1186 C.3     1  UNL1       -0.0378
     71 H           2.4375   10.9100    7.1600 H       1  UNL1        0.0278
     72 H           1.1002   11.2799    6.0713 H       1  UNL1        0.0278
     73 H           0.7846   10.4186    7.5738 H       1  UNL1        0.0278
     74 C           3.3462   15.3848    9.0036 C.3     1  UNL1       -0.0397
     75 H           3.8494   15.0168    9.8984 H       1  UNL1        0.0278
     76 H           3.0636   16.4207    9.1751 H       1  UNL1        0.0278
     77 H           4.0565   15.3421    8.1806 H       1  UNL1        0.0278
@<TRIPOS>BOND
     1    42    41    1
     2    41    43   ar
     3    41    39   ar
     4    44    43    1
     5    40    39    1
     6    43    45   ar
     7    39    37   ar
     8    29    28    1
     9    31    28    1
    10    28    30    1
    11    28    27    1
    12    45    46    1
    13    45    36   ar
    14    37    38    1
    15    37    36   ar
    16    26    25    1
    17    36     1    1
    18    72    70    1
    19    17    16    1
    20    18    16    1
    21    27    25   ar
    22    27    19   ar
    23    25    23   ar
    24    16     2    1
    25    16    15    1
    26    49    48    1
    27    70    71    1
    28    70    73    1
    29    70    59    1
    30     2    19    1
    31    19    20   ar
    32     1     3    1
    33     1     6    1
    34     1    47    1
    35    23    24    1
    36    23    21   ar
    37    61    60    1
    38    59    60   ar
    39    59    58   ar
    40     3     4    1
    41    15     6   ar
    42    15    13   ar
    43    48    47   ar
    44    48    50   ar
    45     5     4    1
    46     5    58    1
    47    60    62   ar
    48    51    50    1
    49    14    13    1
    50    77    74    1
    51    58    65   ar
    52     6     7   ar
    53    13    11   ar
    54    67    66    1
    55    47    56   ar
    56    50    52   ar
    57    62    74    1
    58    62    63   ar
    59    20    21   ar
    60    20    32    1
    61    21    22    1
    62    65    63   ar
    63    65    66    1
    64    74    76    1
    65    74    75    1
    66    63    64    1
    67    66    69    1
    68    66    68    1
    69     7     8    1
    70     7     9   ar
    71    11     9   ar
    72    11    12    1
    73    56    57    1
    74    56    54   ar
    75     9    10    1
    76    52    53    1
    77    52    54   ar
    78    35    32    1
    79    32    34    1
    80    32    33    1
    81    54    55    1
