@<TRIPOS>MOLECULE
1,2,3
 27 28 0 0 0
SMALL
GASTEIGER

@<TRIPOS>ATOM
      1 N           2.1853    1.9756    2.3710 N.ar    1  UNL1       -0.2586
      2 N          -0.4002    4.4310    2.5289 N.ar    1  UNL1       -0.2586
      3 N           2.2515    4.6540    2.5434 N.3     1  UNL1       -0.2941
      4 C           2.2403    0.7058    1.8781 C.ar    1  UNL1        0.0280
      5 H           1.4471   -0.0003    2.0633 H       1  UNL1        0.0829
      6 C           3.4070    0.5109    1.1820 C.ar    1  UNL1       -0.0419
      7 H           3.7228   -0.3904    0.6918 H       1  UNL1        0.0633
      8 C           4.1156    1.7292    1.2356 C.ar    1  UNL1       -0.0377
      9 H           5.0742    1.9387    0.7989 H       1  UNL1        0.0636
     10 C           3.3377    2.5937    1.9685 C.ar    1  UNL1        0.0553
     11 C          -1.7072    4.8104    2.5873 C.ar    1  UNL1        0.0280
     12 H          -2.3707    4.4007    3.3318 H       1  UNL1        0.0829
     13 C          -1.9762    5.7438    1.6158 C.ar    1  UNL1       -0.0419
     14 H          -2.9158    6.2279    1.4286 H       1  UNL1        0.0633
     15 C          -0.7725    5.9512    0.9082 C.ar    1  UNL1       -0.0377
     16 H          -0.6188    6.6145    0.0774 H       1  UNL1        0.0636
     17 C           0.1604    5.1247    1.4900 C.ar    1  UNL1        0.0553
     18 C           3.5600    4.0149    2.3827 C.3     1  UNL1        0.0413
     19 H           4.0847    4.0528    3.3491 H       1  UNL1        0.0491
     20 H           4.1837    4.5481    1.6439 H       1  UNL1        0.0491
     21 C           1.6183    4.8861    1.2343 C.3     1  UNL1        0.0413
     22 H           2.0778    5.7433    0.7118 H       1  UNL1        0.0491
     23 H           1.7663    3.9885    0.6082 H       1  UNL1        0.0491
     24 C           2.3849    5.9303    3.2374 C.3     1  UNL1       -0.0120
     25 H           3.0885    6.5940    2.7118 H       1  UNL1        0.0391
     26 H           2.7475    5.7696    4.2534 H       1  UNL1        0.0391
     27 H           1.4137    6.4236    3.2841 H       1  UNL1        0.0391
@<TRIPOS>BOND
     1    16    15    1
     2    23    21    1
     3     7     6    1
     4    22    21    1
     5     9     8    1
     6    15    17   ar
     7    15    13   ar
     8     6     8   ar
     9     6     4   ar
    10    21    17    1
    11    21     3    1
    12     8    10   ar
    13    14    13    1
    14    17     2   ar
    15    13    11   ar
    16    20    18    1
    17     4     5    1
    18     4     1   ar
    19    10     1   ar
    20    10    18    1
    21    18     3    1
    22    18    19    1
    23     2    11   ar
    24     3    24    1
    25    11    12    1
    26    25    24    1
    27    24    27    1
    28    24    26    1
