@<TRIPOS>MOLECULE
52,53,54
 57 60 0 0 0
SMALL
GASTEIGER

@<TRIPOS>ATOM
      1 B          20.7120    8.2285   24.3047 B       1  UNL1        0.0000
      2 C          19.7810    4.5305   24.3803 C.3     1  UNL1        0.0000
      3 C          19.8575    3.6934   25.6565 C.3     1  UNL1        0.0000
      4 H          20.8543    3.2729   25.7645 H       1  UNL1        0.0000
      5 H          19.1316    2.8839   25.6158 H       1  UNL1        0.0000
      6 H          19.6468    4.3132   26.5260 H       1  UNL1        0.0000
      7 C          20.1472    3.6852   23.1592 C.3     1  UNL1        0.0000
      8 H          20.0115    4.2627   22.2464 H       1  UNL1        0.0000
      9 H          19.5186    2.7985   23.1105 H       1  UNL1        0.0000
     10 H          21.1925    3.3831   23.2245 H       1  UNL1        0.0000
     11 C          18.4010    5.2143   24.2201 C.3     1  UNL1        0.0000
     12 H          17.8948    4.9452   23.2889 H       1  UNL1        0.0000
     13 H          17.7303    5.0176   25.0618 H       1  UNL1        0.0000
     14 C          20.0172    6.7634   24.3443 C.3     1  UNL1        0.0000
     15 C          22.8299    7.3653   21.2407 C.3     1  UNL1        0.0000
     16 C          22.4321    6.0137   20.6451 C.3     1  UNL1        0.0000
     17 H          23.0257    5.2244   21.0983 H       1  UNL1        0.0000
     18 H          22.5917    6.0127   19.5685 H       1  UNL1        0.0000
     19 H          21.3799    5.8172   20.8433 H       1  UNL1        0.0000
     20 C          24.2895    7.6738   20.9202 C.3     1  UNL1        0.0000
     21 H          24.5471    8.6827   21.2350 H       1  UNL1        0.0000
     22 H          24.4567    7.5939   19.8480 H       1  UNL1        0.0000
     23 H          24.9355    6.9670   21.4341 H       1  UNL1        0.0000
     24 C          21.8792    8.4885   20.7608 C.3     1  UNL1        0.0000
     25 H          22.4134    9.3836   20.4243 H       1  UNL1        0.0000
     26 H          21.1982    8.1640   19.9700 H       1  UNL1        0.0000
     27 C          21.5930    8.1149   22.9522 C.3     1  UNL1        0.0000
     28 C          22.8519    8.1879   27.4985 C.3     1  UNL1        0.0000
     29 C          22.8246    7.0053   28.4638 C.3     1  UNL1        0.0000
     30 H          22.9011    7.3679   29.4877 H       1  UNL1        0.0000
     31 H          23.6560    6.3385   28.2601 H       1  UNL1        0.0000
     32 H          21.8926    6.4536   28.3573 H       1  UNL1        0.0000
     33 C          24.2051    8.8949   27.5814 C.3     1  UNL1        0.0000
     34 H          24.1832    9.8271   27.0201 H       1  UNL1        0.0000
     35 H          24.9788    8.2498   27.1758 H       1  UNL1        0.0000
     36 H          24.4395    9.1213   28.6196 H       1  UNL1        0.0000
     37 C          21.6855    9.1664   27.7817 C.3     1  UNL1        0.0000
     38 H          21.0266    8.8184   28.5830 H       1  UNL1        0.0000
     39 H          22.0229   10.1805   28.0150 H       1  UNL1        0.0000
     40 C          21.5267    8.3580   25.6965 C.3     1  UNL1        0.0000
     41 C          18.3851    9.5586   24.3077 C.ar    1  UNL1        0.0000
     42 H          17.8499    8.6348   24.4602 H       1  UNL1        0.0000
     43 C          17.6665   10.7403   24.2281 C.ar    1  UNL1        0.0000
     44 H          16.5884   10.7215   24.3194 H       1  UNL1        0.0000
     45 C          18.3191   11.9435   24.0349 C.ar    1  UNL1        0.0000
     46 H          17.7604   12.8673   23.9724 H       1  UNL1        0.0000
     47 C          19.6992   11.9505   23.9255 C.ar    1  UNL1        0.0000
     48 H          20.2242   12.8854   23.7779 H       1  UNL1        0.0000
     49 C          20.4040   10.7649   24.0066 C.ar    1  UNL1        0.0000
     50 H          21.4839   10.7915   23.9228 H       1  UNL1        0.0000
     51 C          19.7705    9.5351   24.1941 C.ar    1  UNL1        0.0000
     52 N          20.6908    5.6780   24.4649 N.3     1  UNL1        0.0000
     53 N          22.5699    7.3268   22.6883 N.3     1  UNL1        0.0000
     54 N          22.5765    7.7508   26.1170 N.3     1  UNL1        0.0000
     55 O          18.6984    6.6049   24.1915 O.3     1  UNL1        0.0000
     56 O          21.1197    8.8167   21.9127 O.3     1  UNL1        0.0000
     57 O          20.9518    9.1968   26.5703 O.3     1  UNL1        0.0000
@<TRIPOS>BOND
     1    18    16    1
     2    22    20    1
     3    26    24    1
     4    25    24    1
     5    16    19    1
     6    16    17    1
     7    16    15    1
     8    24    15    1
     9    24    56    1
    10    20    21    1
    11    20    15    1
    12    20    23    1
    13    15    53    1
    14    56    27    1
    15     8     7    1
    16    53    27    1
    17    27     1    1
    18     9     7    1
    19     7    10    1
    20     7     2    1
    21    12    11    1
    22    48    47    1
    23    50    49    1
    24    47    49   ar
    25    47    45   ar
    26    46    45    1
    27    49    51   ar
    28    45    43   ar
    29    55    11    1
    30    55    14    1
    31    51     1    1
    32    51    41   ar
    33    11     2    1
    34    11    13    1
    35    43    41   ar
    36    43    44    1
    37     1    14    1
    38     1    40    1
    39    41    42    1
    40    14    52    1
    41     2    52    1
    42     2     3    1
    43     5     3    1
    44     3     4    1
    45     3     6    1
    46    40    54    1
    47    40    57    1
    48    54    28    1
    49    57    37    1
    50    34    33    1
    51    35    33    1
    52    28    33    1
    53    28    37    1
    54    28    29    1
    55    33    36    1
    56    37    39    1
    57    37    38    1
    58    31    29    1
    59    32    29    1
    60    29    30    1
