@<TRIPOS>MOLECULE
1,2,3
 54 53 0 0 0
SMALL
GASTEIGER

@<TRIPOS>ATOM
      1 N           7.0488    4.7291    4.0142 N.3     1  UNL1        0.0000
      2 N           4.5304    4.2557    2.8242 N.3     1  UNL1        0.0000
      3 N           4.8330    1.8429    4.2847 N.3     1  UNL1        0.0000
      4 SI          8.4370    5.7028    3.9700 Si      1  UNL1        0.0000
      5 SI          4.6118    4.5302    1.0736 Si      1  UNL1        0.0000
      6 SI          4.6847    0.1523    4.3147 Si      1  UNL1        0.0000
      7 C           9.2670    5.9165    5.7016 C.3     1  UNL1        0.0000
      8 C           9.6619    4.8810    2.7611 C.3     1  UNL1        0.0000
      9 C           8.1153    7.5160    3.4005 C.3     1  UNL1        0.0000
     10 C           5.8764    5.2081    4.6879 C.3     1  UNL1        0.0000
     11 C           4.7597    5.4354    3.6527 C.3     1  UNL1        0.0000
     12 C           4.3203    2.8313    0.2617 C.3     1  UNL1        0.0000
     13 C           6.3061    5.3053    0.6995 C.3     1  UNL1        0.0000
     14 C           3.1955    5.7297    0.5629 C.3     1  UNL1        0.0000
     15 C           3.3699    3.4904    3.2599 C.3     1  UNL1        0.0000
     16 C           3.6731    2.6605    4.5128 C.3     1  UNL1        0.0000
     17 C           3.7570   -0.6353    2.8167 C.3     1  UNL1        0.0000
     18 C           3.6944   -0.4641    5.8511 C.3     1  UNL1        0.0000
     19 C           6.4491   -0.5659    4.4624 C.3     1  UNL1        0.0000
     20 H          10.1813    6.4981    5.6408 H       1  UNL1        0.0000
     21 H           8.6005    6.4343    6.3865 H       1  UNL1        0.0000
     22 H           9.5158    4.9601    6.1537 H       1  UNL1        0.0000
     23 H          10.5721    4.5693    3.2619 H       1  UNL1        0.0000
     24 H           9.1862    4.0081    2.3208 H       1  UNL1        0.0000
     25 H           9.9476    5.5551    1.9615 H       1  UNL1        0.0000
     26 H           8.9830    8.1437    3.5749 H       1  UNL1        0.0000
     27 H           7.2858    7.9543    3.9491 H       1  UNL1        0.0000
     28 H           7.8764    7.5762    2.3434 H       1  UNL1        0.0000
     29 H           6.0395    6.1625    5.2190 H       1  UNL1        0.0000
     30 H           5.5376    4.4867    5.4561 H       1  UNL1        0.0000
     31 H           5.0916    6.2672    3.0225 H       1  UNL1        0.0000
     32 H           3.8270    5.7445    4.1505 H       1  UNL1        0.0000
     33 H           4.7468    2.7939   -0.7351 H       1  UNL1        0.0000
     34 H           4.8110    2.0772    0.8798 H       1  UNL1        0.0000
     35 H           3.2670    2.5837    0.1634 H       1  UNL1        0.0000
     36 H           6.5832    5.1742   -0.3409 H       1  UNL1        0.0000
     37 H           6.3252    6.3716    0.9044 H       1  UNL1        0.0000
     38 H           7.0523    4.8164    1.3283 H       1  UNL1        0.0000
     39 H           3.2142    5.9203   -0.5046 H       1  UNL1        0.0000
     40 H           3.2784    6.6902    1.0636 H       1  UNL1        0.0000
     41 H           2.2173    5.3207    0.8007 H       1  UNL1        0.0000
     42 H           2.5091    4.1587    3.4405 H       1  UNL1        0.0000
     43 H           3.0955    2.7822    2.4744 H       1  UNL1        0.0000
     44 H           3.8143    3.3439    5.3740 H       1  UNL1        0.0000
     45 H           2.7725    2.0689    4.7462 H       1  UNL1        0.0000
     46 H           3.8053   -1.7199    2.8358 H       1  UNL1        0.0000
     47 H           4.1756   -0.3018    1.8719 H       1  UNL1        0.0000
     48 H           2.7053   -0.3590    2.8255 H       1  UNL1        0.0000
     49 H           3.6700   -1.5478    5.8977 H       1  UNL1        0.0000
     50 H           4.1239   -0.1066    6.7832 H       1  UNL1        0.0000
     51 H           2.6644   -0.1212    5.8149 H       1  UNL1        0.0000
     52 H           6.5106   -1.5551    4.0223 H       1  UNL1        0.0000
     53 H           6.7683   -0.6502    5.4976 H       1  UNL1        0.0000
     54 H           7.1413    0.0941    3.9438 H       1  UNL1        0.0000
@<TRIPOS>BOND
     1    33    12    1
     2    39    14    1
     3    36    13    1
     4    35    12    1
     5    12    34    1
     6    12     5    1
     7    14    41    1
     8    14    40    1
     9    14     5    1
    10    13    37    1
    11    13     5    1
    12    13    38    1
    13     5     2    1
    14    47    17    1
    15    25     8    1
    16    24     8    1
    17    28     9    1
    18    43    15    1
    19     8    23    1
    20     8     4    1
    21    17    48    1
    22    17    46    1
    23    17     6    1
    24     2    15    1
    25     2    11    1
    26    31    11    1
    27    15    42    1
    28    15    16    1
    29     9    26    1
    30     9    27    1
    31     9     4    1
    32    11    32    1
    33    11    10    1
    34    54    19    1
    35     4     1    1
    36     4     7    1
    37     1    10    1
    38    52    19    1
    39     3     6    1
    40     3    16    1
    41     6    19    1
    42     6    18    1
    43    19    53    1
    44    16    45    1
    45    16    44    1
    46    10    29    1
    47    10    30    1
    48    20     7    1
    49     7    22    1
    50     7    21    1
    51    51    18    1
    52    18    49    1
    53    18    50    1
