@<TRIPOS>MOLECULE
1,2,3
 79 81 0 0 0
SMALL
GASTEIGER

@<TRIPOS>ATOM
      1 N           1.1211    1.7503    6.0300 N.pl3   1  UNL1       -0.2171
      2 N           2.8229    1.0567    4.4352 N.pl3   1  UNL1       -0.2154
      3 N           4.7920    2.3779    4.9923 N.pl3   1  UNL1       -0.2352
      4 C          -0.6891    0.2263    5.2741 C.3     1  UNL1       -0.0228
      5 H          -1.3620    0.8518    5.8548 H       1  UNL1        0.0291
      6 H          -0.6510   -0.7638    5.7290 H       1  UNL1        0.0291
      7 H          -1.0861    0.1101    4.2681 H       1  UNL1        0.0291
      8 C           0.6900    0.8001    5.2497 C.2     1  UNL1        0.0510
      9 C           1.6718    0.3610    4.2928 C.2     1  UNL1        0.0720
     10 C           1.5163   -0.5779    3.2750 C.2     1  UNL1       -0.0371
     11 H           0.5939   -1.1256    3.1746 H       1  UNL1        0.0637
     12 C           2.5655   -0.7982    2.3962 C.2     1  UNL1       -0.0583
     13 H           2.4651   -1.5196    1.6016 H       1  UNL1        0.0619
     14 C           3.7494   -0.0917    2.5508 C.2     1  UNL1       -0.0405
     15 H           4.5800   -0.2585    1.8851 H       1  UNL1        0.0634
     16 C           3.8550    0.8257    3.5932 C.2     1  UNL1        0.0586
     17 C           4.9858    1.6522    3.9303 C.3     1  UNL1        0.1181
     18 C           6.2012    1.6833    3.0636 C.3     1  UNL1       -0.0340
     19 H           6.8541    2.5066    3.3416 H       1  UNL1        0.0255
     20 H           5.9158    1.7909    2.0184 H       1  UNL1        0.0255
     21 H           6.7489    0.7466    3.1616 H       1  UNL1        0.0255
     22 C           0.2051    2.4784    6.8186 C.ar    1  UNL1        0.0602
     23 C          -0.2950    3.6728    6.2690 C.ar    1  UNL1       -0.0216
     24 C          -1.2136    4.4092    7.0004 C.ar    1  UNL1       -0.0565
     25 H          -1.6280    5.3146    6.5896 H       1  UNL1        0.0621
     26 C          -1.6159    3.9961    8.2579 C.ar    1  UNL1       -0.0611
     27 H          -2.3306    4.5822    8.8141 H       1  UNL1        0.0618
     28 C          -1.1047    2.8327    8.7962 C.ar    1  UNL1       -0.0565
     29 H          -1.4235    2.5173    9.7769 H       1  UNL1        0.0621
     30 C          -0.2009    2.0510    8.0875 C.ar    1  UNL1       -0.0216
     31 C           0.1536    4.1209    4.8937 C.3     1  UNL1       -0.0197
     32 H           1.1942    3.7688    4.7524 H       1  UNL1        0.0344
     33 C           0.1228    5.6398    4.7226 C.3     1  UNL1       -0.0586
     34 H           0.6374    5.9143    3.8044 H       1  UNL1        0.0235
     35 H           0.5969    6.1488    5.5587 H       1  UNL1        0.0235
     36 H          -0.9004    5.9964    4.6383 H       1  UNL1        0.0235
     37 C          -0.7177    3.4873    3.8042 C.3     1  UNL1       -0.0586
     38 H          -0.4560    3.8984    2.8319 H       1  UNL1        0.0235
     39 H          -1.7671    3.6996    3.9955 H       1  UNL1        0.0235
     40 H          -0.5827    2.4116    3.7656 H       1  UNL1        0.0235
     41 C           0.3296    0.7765    8.6977 C.3     1  UNL1       -0.0197
     42 H           0.9750    0.2884    7.9633 H       1  UNL1        0.0344
     43 C           1.1690    1.0970    9.9378 C.3     1  UNL1       -0.0586
     44 H           1.9622    1.8001    9.6926 H       1  UNL1        0.0235
     45 H           1.6200    0.1882   10.3288 H       1  UNL1        0.0235
     46 H           0.5536    1.5354   10.7195 H       1  UNL1        0.0235
     47 C          -0.8022   -0.1879    9.0601 C.3     1  UNL1       -0.0586
     48 H          -1.4379   -0.3839    8.1999 H       1  UNL1        0.0235
     49 H          -1.4228    0.2160    9.8552 H       1  UNL1        0.0235
     50 H          -0.3865   -1.1320    9.4043 H       1  UNL1        0.0235
     51 C           5.7531    3.3015    5.4418 C.ar    1  UNL1        0.0557
     52 C           6.9431    2.8979    6.0669 C.ar    1  UNL1       -0.0219
     53 C           7.8128    3.8791    6.5284 C.ar    1  UNL1       -0.0565
     54 H           8.7296    3.5861    7.0142 H       1  UNL1        0.0621
     55 C           7.5320    5.2200    6.3668 C.ar    1  UNL1       -0.0611
     56 H           8.2255    5.9655    6.7233 H       1  UNL1        0.0618
     57 C           6.3615    5.6085    5.7390 C.ar    1  UNL1       -0.0565
     58 H           6.1650    6.6594    5.6085 H       1  UNL1        0.0621
     59 C           5.4564    4.6663    5.2785 C.ar    1  UNL1       -0.0219
     60 C           7.3065    1.4445    6.2675 C.3     1  UNL1       -0.0197
     61 H           6.5251    0.8227    5.8231 H       1  UNL1        0.0344
     62 C           7.3957    1.1016    7.7582 C.3     1  UNL1       -0.0586
     63 H           6.4605    1.3168    8.2692 H       1  UNL1        0.0235
     64 H           8.1857    1.6703    8.2414 H       1  UNL1        0.0235
     65 H           7.6173    0.0438    7.8775 H       1  UNL1        0.0235
     66 C           8.6422    1.1111    5.5938 C.3     1  UNL1       -0.0586
     67 H           8.6586    1.4342    4.5565 H       1  UNL1        0.0235
     68 H           8.8131    0.0377    5.6239 H       1  UNL1        0.0235
     69 H           9.4666    1.5958    6.1095 H       1  UNL1        0.0235
     70 C           4.1866    5.0687    4.5599 C.3     1  UNL1       -0.0197
     71 H           3.3912    4.3606    4.8734 H       1  UNL1        0.0344
     72 C           4.3710    4.9399    3.0437 C.3     1  UNL1       -0.0586
     73 H           3.4795    5.2881    2.5269 H       1  UNL1        0.0235
     74 H           4.5535    3.9102    2.7515 H       1  UNL1        0.0235
     75 H           5.2133    5.5467    2.7186 H       1  UNL1        0.0235
     76 C           3.7360    6.4904    4.8867 C.3     1  UNL1       -0.0586
     77 H           3.6915    6.6570    5.9595 H       1  UNL1        0.0235
     78 H           2.7508    6.6731    4.4680 H       1  UNL1        0.0235
     79 H           4.4147    7.2175    4.4478 H       1  UNL1        0.0235
@<TRIPOS>BOND
     1    13    12    1
     2    15    14    1
     3    20    18    1
     4    12    14    1
     5    12    10    2
     6    73    72    1
     7    14    16    2
     8    75    72    1
     9    74    72    1
    10    38    37    1
    11    72    70    1
    12    18    21    1
    13    18    19    1
    14    18    17    1
    15    11    10    1
    16    10     9    1
    17    16    17    1
    18    16     2    1
    19    40    37    1
    20    37    39    1
    21    37    31    1
    22    34    33    1
    23    17     3    1
    24     7     4    1
    25     9     2    1
    26     9     8    2
    27    79    76    1
    28    78    76    1
    29    67    66    1
    30    70    71    1
    31    70    76    1
    32    70    59    1
    33    36    33    1
    34    33    31    1
    35    33    35    1
    36    32    31    1
    37    76    77    1
    38    31    23    1
    39     3    51    1
    40     8     4    1
    41     8     1    1
    42     4     6    1
    43     4     5    1
    44    59    51   ar
    45    59    57   ar
    46    51    52   ar
    47    66    68    1
    48    66    69    1
    49    66    60    1
    50    58    57    1
    51    57    55   ar
    52    61    60    1
    53     1    22    1
    54    52    60    1
    55    52    53   ar
    56    60    62    1
    57    23    22   ar
    58    23    24   ar
    59    55    53   ar
    60    55    56    1
    61    53    54    1
    62    25    24    1
    63    22    30   ar
    64    24    26   ar
    65    62    65    1
    66    62    64    1
    67    62    63    1
    68    42    41    1
    69    30    41    1
    70    30    28   ar
    71    48    47    1
    72    26    28   ar
    73    26    27    1
    74    41    47    1
    75    41    43    1
    76    28    29    1
    77    47    50    1
    78    47    49    1
    79    44    43    1
    80    43    45    1
    81    43    46    1
