@<TRIPOS>MOLECULE
1,2,3
 79 81 0 0 0
SMALL
GASTEIGER

@<TRIPOS>ATOM
      1 N           6.5352   10.0633   16.3906 N.pl3   1  UNL1       -0.2352
      2 N           8.7124   10.8596   15.7691 N.pl3   1  UNL1       -0.2154
      3 N          10.2172    9.9113   17.3972 N.pl3   1  UNL1       -0.2171
      4 C          12.3656   10.7051   16.3982 C.3     1  UNL1       -0.0228
      5 H          12.8501    9.9868   17.0539 H       1  UNL1        0.0291
      6 H          12.6738   11.7098   16.6876 H       1  UNL1        0.0291
      7 H          12.7020   10.5375   15.3767 H       1  UNL1        0.0291
      8 C          10.8779   10.5923   16.4837 C.2     1  UNL1        0.0510
      9 C          10.0186   11.2070   15.5288 C.2     1  UNL1        0.0720
     10 C          10.3614   12.0338   14.4682 C.2     1  UNL1       -0.0371
     11 H          11.3952   12.2857   14.2944 H       1  UNL1        0.0637
     12 C           9.3653   12.5431   13.6455 C.2     1  UNL1       -0.0583
     13 H           9.6196   13.1907   12.8226 H       1  UNL1        0.0619
     14 C           8.0420   12.2156   13.8953 C.2     1  UNL1       -0.0405
     15 H           7.2549   12.6109   13.2735 H       1  UNL1        0.0634
     16 C           7.7291   11.3743   14.9570 C.2     1  UNL1        0.0586
     17 C           6.4589   10.8775   15.3515 C.3     1  UNL1        0.1181
     18 C           5.1898   11.2639   14.6623 C.3     1  UNL1       -0.0340
     19 H           4.3823   10.5799   14.9091 H       1  UNL1        0.0255
     20 H           5.3189   11.2910   13.5829 H       1  UNL1        0.0255
     21 H           4.9060   12.2666   14.9855 H       1  UNL1        0.0255
     22 C           5.3955    9.2948   16.7235 C.ar    1  UNL1        0.0557
     23 C           5.2275    8.0520   16.0835 C.ar    1  UNL1       -0.0219
     24 C           4.0673    7.3333   16.3315 C.ar    1  UNL1       -0.0565
     25 H           3.9054    6.3912   15.8340 H       1  UNL1        0.0621
     26 C           3.1035    7.8116   17.2005 C.ar    1  UNL1       -0.0611
     27 H           2.2027    7.2431   17.3716 H       1  UNL1        0.0618
     28 C           3.2956    9.0155   17.8497 C.ar    1  UNL1       -0.0565
     29 H           2.5412    9.3764   18.5310 H       1  UNL1        0.0621
     30 C           4.4352    9.7769   17.6218 C.ar    1  UNL1       -0.0219
     31 C           6.2738    7.5230   15.1232 C.3     1  UNL1       -0.0197
     32 H           7.2435    7.9616   15.4053 H       1  UNL1        0.0344
     33 C           6.4019    5.9971   15.1597 C.3     1  UNL1       -0.0586
     34 H           6.4414    5.6139   16.1768 H       1  UNL1        0.0235
     35 H           7.3111    5.6972   14.6429 H       1  UNL1        0.0235
     36 H           5.5660    5.5268   14.6485 H       1  UNL1        0.0235
     37 C           5.9576    7.9518   13.6859 C.3     1  UNL1       -0.0586
     38 H           6.0586    9.0251   13.5632 H       1  UNL1        0.0235
     39 H           4.9424    7.6642   13.4218 H       1  UNL1        0.0235
     40 H           6.6427    7.4650   12.9955 H       1  UNL1        0.0235
     41 C           4.6166   11.0994   18.3276 C.3     1  UNL1       -0.0197
     42 H           5.5595   11.5440   17.9884 H       1  UNL1        0.0344
     43 C           4.7294   10.8880   19.8386 C.3     1  UNL1       -0.0586
     44 H           5.6291   10.3225   20.0660 H       1  UNL1        0.0235
     45 H           3.8657   10.3552   20.2284 H       1  UNL1        0.0235
     46 H           4.7929   11.8475   20.3448 H       1  UNL1        0.0235
     47 C           3.4672   12.0576   18.0074 C.3     1  UNL1       -0.0586
     48 H           3.3446   12.1767   16.9335 H       1  UNL1        0.0235
     49 H           3.6619   13.0342   18.4449 H       1  UNL1        0.0235
     50 H           2.5301   11.6888   18.4156 H       1  UNL1        0.0235
     51 C          10.9381    9.1382   18.3364 C.ar    1  UNL1        0.0602
     52 C          11.5275    9.7312   19.4625 C.ar    1  UNL1       -0.0216
     53 C          12.2700    8.9297   20.3202 C.ar    1  UNL1       -0.0565
     54 H          12.7322    9.3682   21.1902 H       1  UNL1        0.0621
     55 C          12.4537    7.5861   20.0602 C.ar    1  UNL1       -0.0611
     56 H          13.0567    6.9842   20.7221 H       1  UNL1        0.0618
     57 C          11.8629    7.0093   18.9492 C.ar    1  UNL1       -0.0565
     58 H          12.0174    5.9601   18.7582 H       1  UNL1        0.0621
     59 C          11.0819    7.7623   18.0848 C.ar    1  UNL1       -0.0216
     60 C          11.4159   11.2142   19.7320 C.3     1  UNL1       -0.0197
     61 H          10.8451   11.6703   18.9179 H       1  UNL1        0.0344
     62 C          10.6743   11.5020   21.0406 C.3     1  UNL1       -0.0586
     63 H           9.6240   11.2336   20.9600 H       1  UNL1        0.0235
     64 H          10.7356   12.5635   21.2692 H       1  UNL1        0.0235
     65 H          11.1125   10.9507   21.8684 H       1  UNL1        0.0235
     66 C          12.8069   11.8567   19.7915 C.3     1  UNL1       -0.0586
     67 H          13.4209   11.5582   18.9464 H       1  UNL1        0.0235
     68 H          13.3244   11.5672   20.7020 H       1  UNL1        0.0235
     69 H          12.7179   12.9406   19.7867 H       1  UNL1        0.0235
     70 C          10.4196    7.1362   16.8766 C.3     1  UNL1       -0.0197
     71 H           9.4740    7.6760   16.7063 H       1  UNL1        0.0344
     72 C          11.2991    7.2998   15.6318 C.3     1  UNL1       -0.0586
     73 H          11.4033    8.3448   15.3549 H       1  UNL1        0.0235
     74 H          10.8573    6.7674   14.7925 H       1  UNL1        0.0235
     75 H          12.2896    6.8885   15.8148 H       1  UNL1        0.0235
     76 C          10.1005    5.6537   17.0710 C.3     1  UNL1       -0.0586
     77 H           9.6445    5.4691   18.0399 H       1  UNL1        0.0235
     78 H          11.0010    5.0497   16.9914 H       1  UNL1        0.0235
     79 H           9.4111    5.3211   16.2988 H       1  UNL1        0.0235
@<TRIPOS>BOND
     1    13    12    1
     2    40    37    1
     3    15    14    1
     4    39    37    1
     5    38    37    1
     6    20    18    1
     7    12    14    1
     8    12    10    2
     9    37    31    1
    10    14    16    2
    11    11    10    1
    12    10     9    1
    13    35    33    1
    14    36    33    1
    15    18    19    1
    16    18    21    1
    17    18    17    1
    18    74    72    1
    19    16    17    1
    20    16     2    1
    21    31    33    1
    22    31    32    1
    23    31    23    1
    24    33    34    1
    25    17     1    1
    26    73    72    1
    27     7     4    1
    28     9     2    1
    29     9     8    2
    30    72    75    1
    31    72    70    1
    32    25    24    1
    33    23    24   ar
    34    23    22   ar
    35    79    76    1
    36    24    26   ar
    37     1    22    1
    38     4     8    1
    39     4     6    1
    40     4     5    1
    41     8     3    1
    42    71    70    1
    43    22    30   ar
    44    70    76    1
    45    70    59    1
    46    48    47    1
    47    78    76    1
    48    76    77    1
    49    26    27    1
    50    26    28   ar
    51     3    51    1
    52    30    28   ar
    53    30    41    1
    54    28    29    1
    55    42    41    1
    56    47    41    1
    57    47    50    1
    58    47    49    1
    59    59    51   ar
    60    59    57   ar
    61    41    43    1
    62    51    52   ar
    63    58    57    1
    64    61    60    1
    65    67    66    1
    66    57    55   ar
    67    52    60    1
    68    52    53   ar
    69    60    66    1
    70    60    62    1
    71    69    66    1
    72    66    68    1
    73    43    44    1
    74    43    45    1
    75    43    46    1
    76    55    53   ar
    77    55    56    1
    78    53    54    1
    79    63    62    1
    80    62    64    1
    81    62    65    1
