@<TRIPOS>MOLECULE
1,2,3
 58 58 0 0 0
SMALL
GASTEIGER

@<TRIPOS>ATOM
      1 N           5.0904   16.3791   12.3995 N.pl3   1  UNL1       -0.2193
      2 N           5.1756   11.6723   11.3717 N.3     1  UNL1       -0.3071
      3 N           4.9675   13.5711   13.5955 N.3     1  UNL1       -0.2264
      4 C           5.4915   18.0643   14.1510 C.3     1  UNL1       -0.0249
      5 H           6.5524   18.2522   14.3151 H       1  UNL1        0.0290
      6 H           4.9768   18.2226   15.0964 H       1  UNL1        0.0290
      7 H           5.1220   18.7771   13.4184 H       1  UNL1        0.0290
      8 C           5.4264   15.6748   14.6822 C.2     1  UNL1       -0.0422
      9 H           5.6408   16.0921   15.6570 H       1  UNL1        0.0607
     10 C           5.3163   16.6389   13.6744 C.2     1  UNL1        0.0261
     11 C           4.2701   11.4589   12.5076 C.3     1  UNL1        0.0125
     12 H           4.1564   10.3808   12.7142 H       1  UNL1        0.0439
     13 H           3.2866   11.8503   12.2279 H       1  UNL1        0.0439
     14 C           3.2059   18.7385   10.2670 C.ar    1  UNL1       -0.0565
     15 H           2.1815   18.9934   10.0466 H       1  UNL1        0.0621
     16 C           5.8646   18.1481   10.8555 C.ar    1  UNL1       -0.0216
     17 C           5.2255   14.2885   14.6779 C.3     1  UNL1        0.0764
     18 C           3.4825   17.7517   11.2017 C.ar    1  UNL1       -0.0216
     19 C           4.7299   12.1477   13.7932 C.3     1  UNL1        0.0277
     20 H           3.9377   11.9823   14.5376 H       1  UNL1        0.0454
     21 H           5.6399   11.6583   14.1730 H       1  UNL1        0.0454
     22 C           4.8267   17.4392   11.4863 C.ar    1  UNL1        0.0601
     23 C           5.5374   19.1207    9.9181 C.ar    1  UNL1       -0.0565
     24 H           6.3269   19.6680    9.4260 H       1  UNL1        0.0621
     25 C           2.0017   17.8849   13.2003 C.3     1  UNL1       -0.0586
     26 H           2.8349   17.9195   13.8946 H       1  UNL1        0.0235
     27 H           1.1538   17.4293   13.7066 H       1  UNL1        0.0235
     28 H           1.7367   18.9037   12.9225 H       1  UNL1        0.0235
     29 C           2.3585   17.0702   11.9521 C.3     1  UNL1       -0.0197
     30 H           2.7081   16.0798   12.2738 H       1  UNL1        0.0344
     31 C           5.2774   13.6245   16.0346 C.3     1  UNL1       -0.0396
     32 H           4.2970   13.2225   16.2924 H       1  UNL1        0.0252
     33 H           5.5680   14.3319   16.8056 H       1  UNL1        0.0252
     34 H           5.9878   12.7988   16.0361 H       1  UNL1        0.0252
     35 C           7.3226   17.9267   11.1932 C.3     1  UNL1       -0.0197
     36 H           7.3916   17.1452   11.9614 H       1  UNL1        0.0344
     37 C           4.2228   19.4120    9.6159 C.ar    1  UNL1       -0.0611
     38 H           3.9890   20.1729    8.8862 H       1  UNL1        0.0618
     39 C           4.5561   11.0878   10.1796 C.3     1  UNL1       -0.0130
     40 H           3.6048   11.5772    9.9754 H       1  UNL1        0.0391
     41 H           4.3735   10.0131   10.3188 H       1  UNL1        0.0391
     42 H           5.2215   11.2210    9.3278 H       1  UNL1        0.0391
     43 C           6.4442   10.9751   11.5989 C.3     1  UNL1       -0.0130
     44 H           7.0865   11.1069   10.7289 H       1  UNL1        0.0391
     45 H           6.2809    9.9005   11.7631 H       1  UNL1        0.0391
     46 H           6.9628   11.3875   12.4631 H       1  UNL1        0.0391
     47 C           1.0986   16.8652   11.1126 C.3     1  UNL1       -0.0586
     48 H           0.5919   17.8078   10.9184 H       1  UNL1        0.0235
     49 H           0.4115   16.2202   11.6558 H       1  UNL1        0.0235
     50 H           1.3405   16.3864   10.1691 H       1  UNL1        0.0235
     51 C           8.1296   17.4654    9.9785 C.3     1  UNL1       -0.0586
     52 H           7.8159   16.4736    9.6627 H       1  UNL1        0.0235
     53 H           9.1851   17.4190   10.2392 H       1  UNL1        0.0235
     54 H           8.0110   18.1519    9.1438 H       1  UNL1        0.0235
     55 C           7.9476   19.2066   11.7587 C.3     1  UNL1       -0.0586
     56 H           8.0545   19.9574   10.9795 H       1  UNL1        0.0235
     57 H           8.9359   18.9865   12.1579 H       1  UNL1        0.0235
     58 H           7.3377   19.6289   12.5532 H       1  UNL1        0.0235
@<TRIPOS>BOND
     1    38    37    1
     2    54    51    1
     3    42    39    1
     4    24    23    1
     5    37    23   ar
     6    37    14   ar
     7    52    51    1
     8    23    16   ar
     9    40    39    1
    10    51    53    1
    11    51    35    1
    12    15    14    1
    13    50    47    1
    14    39    41    1
    15    39     2    1
    16    14    18   ar
    17    44    43    1
    18    16    35    1
    19    16    22   ar
    20    48    47    1
    21    56    55    1
    22    47    49    1
    23    47    29    1
    24    35    55    1
    25    35    36    1
    26    18    22   ar
    27    18    29    1
    28     2    43    1
    29     2    11    1
    30    22     1    1
    31    43    45    1
    32    43    46    1
    33    55    57    1
    34    55    58    1
    35    29    30    1
    36    29    25    1
    37    13    11    1
    38     1    10    1
    39    11    12    1
    40    11    19    1
    41    28    25    1
    42    25    27    1
    43    25    26    1
    44     7     4    1
    45     3    19    1
    46     3    17    1
    47    10     4    1
    48    10     8    2
    49    19    21    1
    50    19    20    1
    51     4     5    1
    52     4     6    1
    53    17     8    1
    54    17    31    1
    55     8     9    1
    56    31    34    1
    57    31    32    1
    58    31    33    1
