@<TRIPOS>MOLECULE
1,2,4
 59 62 0 0 0
SMALL
GASTEIGER

@<TRIPOS>ATOM
      1 N          10.8161    6.8539    3.1279 N.pl3   1  UNL1       -0.2127
      2 N          10.8578    6.5392    5.9242 N.pl3   1  UNL1       -0.2398
      3 C          12.6576    5.9267    4.4074 C.ar    1  UNL1       -0.0003
      4 N           8.2426    6.7807    2.2400 N.pl3   1  UNL1       -0.2205
      5 C          12.0734    6.1753    5.6821 C.3     1  UNL1        0.0936
      6 H          12.7565    6.0476    6.5320 H       1  UNL1        0.0591
      7 C          12.0464    6.2881    3.1684 C.ar    1  UNL1        0.0588
      8 C          12.7599    5.9676    1.9865 C.ar    1  UNL1       -0.0384
      9 H          12.2934    6.1809    1.0351 H       1  UNL1        0.0637
     10 C          11.3393    8.5160    1.4209 C.2     1  UNL1       -0.0401
     11 H          12.3500    8.6047    1.7934 H       1  UNL1        0.0634
     12 C          10.5882    6.8592    7.2856 C.ar    1  UNL1        0.0554
     13 C          10.2768    5.8613    8.2138 C.ar    1  UNL1       -0.0220
     14 C          10.4687    7.6290    2.0491 C.2     1  UNL1        0.0766
     15 C           9.1154    7.5778    1.5794 C.2     1  UNL1        0.0797
     16 C          10.0656    6.2302    9.5364 C.ar    1  UNL1       -0.0565
     17 H           9.8345    5.4734   10.2700 H       1  UNL1        0.0621
     18 C           8.7354    8.3313    0.4348 C.2     1  UNL1       -0.0148
     19 C          10.6773    8.2046    7.6725 C.ar    1  UNL1       -0.0220
     20 C           7.0293    6.6375    1.7505 C.2     1  UNL1        0.0174
     21 H           6.3664    5.9783    2.2971 H       1  UNL1        0.0802
     22 C          11.0380    9.2553    6.6455 C.3     1  UNL1       -0.0197
     23 H          10.6793    8.8987    5.6672 H       1  UNL1        0.0344
     24 C          14.5944    5.0442    3.2339 C.ar    1  UNL1       -0.0613
     25 H          15.5659    4.5755    3.2514 H       1  UNL1        0.0618
     26 C          10.1724    4.4101    7.8025 C.3     1  UNL1       -0.0197
     27 H          10.2218    4.3516    6.7069 H       1  UNL1        0.0344
     28 C          13.9824    5.3545    2.0161 C.ar    1  UNL1       -0.0599
     29 H          14.4783    5.1052    1.0891 H       1  UNL1        0.0618
     30 C          10.4601    8.5292    9.0026 C.ar    1  UNL1       -0.0565
     31 H          10.5337    9.5557    9.3242 H       1  UNL1        0.0621
     32 C           6.5777    7.2915    0.5969 C.2     1  UNL1       -0.0457
     33 H           5.5720    7.1224    0.2448 H       1  UNL1        0.0631
     34 C          10.1601    7.5496    9.9315 C.ar    1  UNL1       -0.0611
     35 H          10.0019    7.8172   10.9656 H       1  UNL1        0.0618
     36 C          13.9339    5.3312    4.3980 C.ar    1  UNL1       -0.0548
     37 H          14.3851    5.0793    5.3482 H       1  UNL1        0.0621
     38 C          10.3837   10.6075    6.9212 C.3     1  UNL1       -0.0586
     39 H           9.3185   10.4844    7.0945 H       1  UNL1        0.0235
     40 H          10.5177   11.2596    6.0616 H       1  UNL1        0.0235
     41 H          10.8318   11.0963    7.7834 H       1  UNL1        0.0235
     42 C           9.6641    9.1955   -0.1706 C.3     1  UNL1        0.0147
     43 H           9.3630    9.7718   -1.0321 H       1  UNL1        0.0401
     44 C           7.4201    8.1595   -0.0440 C.2     1  UNL1       -0.0549
     45 H           7.0993    8.7153   -0.9138 H       1  UNL1        0.0621
     46 C          10.9341    9.2942    0.3410 C.2     1  UNL1       -0.0738
     47 H          11.6441    9.9740   -0.1073 H       1  UNL1        0.0579
     48 C          12.5602    9.4184    6.5743 C.3     1  UNL1       -0.0586
     49 H          12.9568    9.6906    7.5509 H       1  UNL1        0.0235
     50 H          12.8196   10.2010    5.8644 H       1  UNL1        0.0235
     51 H          13.0374    8.4951    6.2533 H       1  UNL1        0.0235
     52 C          11.3364    3.6019    8.3817 C.3     1  UNL1       -0.0586
     53 H          12.2886    3.9928    8.0300 H       1  UNL1        0.0235
     54 H          11.2592    2.5616    8.0742 H       1  UNL1        0.0235
     55 H          11.3310    3.6424    9.4688 H       1  UNL1        0.0235
     56 C           8.8329    3.8117    8.2379 C.3     1  UNL1       -0.0586
     57 H           8.7646    3.7400    9.3204 H       1  UNL1        0.0235
     58 H           8.7226    2.8115    7.8247 H       1  UNL1        0.0235
     59 H           8.0127    4.4301    7.8779 H       1  UNL1        0.0235
@<TRIPOS>BOND
     1    43    42    1
     2    45    44    1
     3    42    46    1
     4    42    18    1
     5    47    46    1
     6    44    18    2
     7    44    32    1
     8    33    32    1
     9    46    10    2
    10    18    15    1
    11    32    20    2
    12     9     8    1
    13    29    28    1
    14    10    11    1
    15    10    14    1
    16    15    14    2
    17    15     4    1
    18    20     4    1
    19    20    21    1
    20     8    28   ar
    21     8     7   ar
    22    28    24   ar
    23    14     1    1
    24     1     7    1
    25     7     3   ar
    26    24    25    1
    27    24    36   ar
    28    36     3   ar
    29    36    37    1
    30     3     5    1
    31    23    22    1
    32     5     2    1
    33     5     6    1
    34    50    48    1
    35     2    12    1
    36    40    38    1
    37    51    48    1
    38    48    22    1
    39    48    49    1
    40    22    38    1
    41    22    19    1
    42    27    26    1
    43    38    39    1
    44    38    41    1
    45    12    19   ar
    46    12    13   ar
    47    19    30   ar
    48    26    13    1
    49    26    56    1
    50    26    52    1
    51    58    56    1
    52    59    56    1
    53    53    52    1
    54    54    52    1
    55    13    16   ar
    56    56    57    1
    57    52    55    1
    58    30    31    1
    59    30    34   ar
    60    16    34   ar
    61    16    17    1
    62    34    35    1
