@<TRIPOS>MOLECULE
1,2,3
 51 50 0 0 0
SMALL
GASTEIGER

@<TRIPOS>ATOM
      1 N           5.7523    4.1174   16.8161 N.3     1  UNL1        0.0000
      2 N           5.9741    4.9684   13.3826 N.3     1  UNL1        0.0000
      3 N           4.5932    2.7333   14.5893 N.3     1  UNL1        0.0000
      4 SI          7.3178    4.1195   17.4765 Si      1  UNL1        0.0000
      5 SI          5.7573    5.7553   11.8850 Si      1  UNL1        0.0000
      6 C           4.6741    3.4838   17.5393 C.3     1  UNL1        0.0000
      7 C           4.3806    2.0634   17.0333 C.3     1  UNL1        0.0000
      8 C           3.7895    2.0692   15.6264 C.3     1  UNL1        0.0000
      9 C           5.8622    2.0191   14.4128 C.3     1  UNL1        0.0000
     10 C           6.7737    2.6096   13.3373 C.3     1  UNL1        0.0000
     11 C           7.0964    4.0928   13.5998 C.3     1  UNL1        0.0000
     12 C           3.8229    2.6505   13.3469 C.3     1  UNL1        0.0000
     13 C           8.4264    2.5757   17.1000 C.3     1  UNL1        0.0000
     14 C           8.3448    5.6296   16.8892 C.3     1  UNL1        0.0000
     15 C           7.3047    4.2063   19.3949 C.3     1  UNL1        0.0000
     16 C           4.5683    7.2283   12.1691 C.3     1  UNL1        0.0000
     17 C           5.0667    4.7043   10.4148 C.3     1  UNL1        0.0000
     18 C           7.4283    6.4248   11.1971 C.3     1  UNL1        0.0000
     19 H           4.8918    3.4108   18.6163 H       1  UNL1        0.0000
     20 H           3.7496    4.0755   17.4309 H       1  UNL1        0.0000
     21 H           3.6479    1.5921   17.6944 H       1  UNL1        0.0000
     22 H           5.2974    1.4718   17.0805 H       1  UNL1        0.0000
     23 H           2.8281    2.5936   15.6739 H       1  UNL1        0.0000
     24 H           3.5968    1.0234   15.3194 H       1  UNL1        0.0000
     25 H           6.4019    2.0562   15.3617 H       1  UNL1        0.0000
     26 H           5.6562    0.9596   14.1660 H       1  UNL1        0.0000
     27 H           7.7052    2.0355   13.3451 H       1  UNL1        0.0000
     28 H           6.3343    2.5112   12.3422 H       1  UNL1        0.0000
     29 H           7.4283    4.1771   14.6476 H       1  UNL1        0.0000
     30 H           7.9507    4.3649   12.9578 H       1  UNL1        0.0000
     31 H           4.3070    3.2451   12.5769 H       1  UNL1        0.0000
     32 H           2.8205    3.0464   13.5057 H       1  UNL1        0.0000
     33 H           3.7379    1.6039   13.0124 H       1  UNL1        0.0000
     34 H           9.3484    2.6263   17.6718 H       1  UNL1        0.0000
     35 H           7.9362    1.6436   17.3730 H       1  UNL1        0.0000
     36 H           8.7064    2.5061   16.0512 H       1  UNL1        0.0000
     37 H           9.4016    5.4354   17.0430 H       1  UNL1        0.0000
     38 H           8.0950    6.5254   17.4506 H       1  UNL1        0.0000
     39 H           8.2058    5.8548   15.8349 H       1  UNL1        0.0000
     40 H           8.2895    4.4483   19.7807 H       1  UNL1        0.0000
     41 H           7.0116    3.2568   19.8321 H       1  UNL1        0.0000
     42 H           6.6159    4.9638   19.7585 H       1  UNL1        0.0000
     43 H           3.7862    7.2512   11.4184 H       1  UNL1        0.0000
     44 H           5.0836    8.1826   12.1209 H       1  UNL1        0.0000
     45 H           4.0971    7.1425   13.1479 H       1  UNL1        0.0000
     46 H           5.1032    5.2810    9.4953 H       1  UNL1        0.0000
     47 H           4.0328    4.4041   10.5624 H       1  UNL1        0.0000
     48 H           5.6523    3.8032   10.2469 H       1  UNL1        0.0000
     49 H           7.2659    7.1635   10.4191 H       1  UNL1        0.0000
     50 H           8.0321    6.8921   11.9712 H       1  UNL1        0.0000
     51 H           8.0200    5.6257   10.7606 H       1  UNL1        0.0000
@<TRIPOS>BOND
     1    46    17    1
     2    48    17    1
     3    17    47    1
     4    17     5    1
     5    49    18    1
     6    51    18    1
     7    18     5    1
     8    18    50    1
     9    43    16    1
    10     5    16    1
    11     5     2    1
    12    44    16    1
    13    16    45    1
    14    28    10    1
    15    31    12    1
    16    30    11    1
    17    33    12    1
    18    10    27    1
    19    10    11    1
    20    10     9    1
    21    12    32    1
    22    12     3    1
    23     2    11    1
    24    11    29    1
    25    26     9    1
    26     9     3    1
    27     9    25    1
    28     3     8    1
    29    24     8    1
    30     8    23    1
    31     8     7    1
    32    39    14    1
    33    36    13    1
    34     1     4    1
    35     1     6    1
    36    14    37    1
    37    14    38    1
    38    14     4    1
    39     7    22    1
    40     7     6    1
    41     7    21    1
    42    13    35    1
    43    13     4    1
    44    13    34    1
    45    20     6    1
    46     4    15    1
    47     6    19    1
    48    15    42    1
    49    15    40    1
    50    15    41    1
