@<TRIPOS>MOLECULE
1,2,3
 49 49 0 0 0
SMALL
GASTEIGER

@<TRIPOS>ATOM
      1 N           0.1254    0.0948    3.2080 N.3     1  UNL1        0.0000
      2 N          -2.3449   -2.2411    2.6768 N.3     1  UNL1        0.0000
      3 N          -0.2381   -2.2336    4.2227 N.pl3   1  UNL1        0.0000
      4 SI          1.3547    0.7584    4.1838 Si      1  UNL1        0.0000
      5 SI         -3.3135   -3.5648    3.1300 Si      1  UNL1        0.0000
      6 C           0.3876   -0.5124    1.9489 C.3     1  UNL1        0.0000
      7 C          -1.4714   -2.2837    1.5533 C.3     1  UNL1        0.0000
      8 C           0.0558   -2.0526    1.8543 C.3     1  UNL1        0.0000
      9 C           0.8381   -2.6065    0.6573 C.3     1  UNL1        0.0000
     10 C           0.4168   -2.7027    3.1505 C.3     1  UNL1        0.0000
     11 C           1.3778   -3.7056    3.2832 C.2     1  UNL1        0.0000
     12 C           1.6640   -4.2186    4.5337 C.2     1  UNL1        0.0000
     13 C           0.9852   -3.7128    5.6366 C.2     1  UNL1        0.0000
     14 C           0.0438   -2.7251    5.4284 C.2     1  UNL1        0.0000
     15 C           3.0830   -0.0141    3.8357 C.3     1  UNL1        0.0000
     16 C           0.9239    0.4662    6.0221 C.3     1  UNL1        0.0000
     17 C           1.5381    2.6520    3.8896 C.3     1  UNL1        0.0000
     18 C          -3.9160   -4.5489    1.5920 C.3     1  UNL1        0.0000
     19 C          -2.4561   -4.8922    4.2405 C.3     1  UNL1        0.0000
     20 C          -4.8473   -2.8417    4.0151 C.3     1  UNL1        0.0000
     21 H           1.4486   -0.4105    1.6678 H       1  UNL1        0.0000
     22 H          -0.1991   -0.0210    1.1439 H       1  UNL1        0.0000
     23 H          -1.5388   -3.2515    1.0306 H       1  UNL1        0.0000
     24 H          -1.7626   -1.5081    0.8119 H       1  UNL1        0.0000
     25 H           0.6458   -3.6688    0.5157 H       1  UNL1        0.0000
     26 H           1.9092   -2.4532    0.7787 H       1  UNL1        0.0000
     27 H           0.5254   -2.0864   -0.2472 H       1  UNL1        0.0000
     28 H           1.9001   -4.0847    2.4199 H       1  UNL1        0.0000
     29 H           2.4049   -4.9957    4.6491 H       1  UNL1        0.0000
     30 H           1.1850   -4.0827    6.6299 H       1  UNL1        0.0000
     31 H          -0.5101   -2.2955    6.2567 H       1  UNL1        0.0000
     32 H           3.8177    0.3176    4.5614 H       1  UNL1        0.0000
     33 H           3.0458   -1.1004    3.8767 H       1  UNL1        0.0000
     34 H           3.4520    0.2673    2.8537 H       1  UNL1        0.0000
     35 H           1.0194    1.3792    6.5993 H       1  UNL1        0.0000
     36 H          -0.1078    0.1291    6.0916 H       1  UNL1        0.0000
     37 H           1.5635   -0.2823    6.4802 H       1  UNL1        0.0000
     38 H           2.3828    3.0488    4.4432 H       1  UNL1        0.0000
     39 H           0.6521    3.1824    4.2255 H       1  UNL1        0.0000
     40 H           1.6943    2.8910    2.8408 H       1  UNL1        0.0000
     41 H          -4.7201   -5.2284    1.8531 H       1  UNL1        0.0000
     42 H          -3.1166   -5.1462    1.1632 H       1  UNL1        0.0000
     43 H          -4.2848   -3.8868    0.8140 H       1  UNL1        0.0000
     44 H          -3.1142   -5.7348    4.4291 H       1  UNL1        0.0000
     45 H          -2.1626   -4.4835    5.2035 H       1  UNL1        0.0000
     46 H          -1.5567   -5.2814    3.7670 H       1  UNL1        0.0000
     47 H          -5.2029   -3.5084    4.7923 H       1  UNL1        0.0000
     48 H          -4.5982   -1.8900    4.4800 H       1  UNL1        0.0000
     49 H          -5.6718   -2.6820    3.3264 H       1  UNL1        0.0000
@<TRIPOS>BOND
     1    27     9    1
     2    25     9    1
     3     9    26    1
     4     9     8    1
     5    24     7    1
     6    43    18    1
     7    23     7    1
     8    22     6    1
     9    42    18    1
    10     7     8    1
    11     7     2    1
    12    18    41    1
    13    18     5    1
    14    21     6    1
    15     8     6    1
    16     8    10    1
    17     6     1    1
    18    28    11    1
    19     2     5    1
    20    40    17    1
    21    34    15    1
    22     5    20    1
    23     5    19    1
    24    10    11    1
    25    10     3    1
    26     1     4    1
    27    11    12    2
    28    49    20    1
    29    46    19    1
    30    15    33    1
    31    15     4    1
    32    15    32    1
    33    17     4    1
    34    17    39    1
    35    17    38    1
    36    20    48    1
    37    20    47    1
    38     4    16    1
    39     3    14    1
    40    19    44    1
    41    19    45    1
    42    12    29    1
    43    12    13    1
    44    14    13    2
    45    14    31    1
    46    13    30    1
    47    16    36    1
    48    16    37    1
    49    16    35    1
