@<TRIPOS>MOLECULE
1,2,3
 54 53 0 0 0
SMALL
GASTEIGER

@<TRIPOS>ATOM
      1 N           9.7293    0.8699   10.7959 N.3     1  UNL1        0.0000
      2 N           6.9136    2.1980    8.9580 N.3     1  UNL1        0.0000
      3 N           7.1118    1.5294   11.7237 N.3     1  UNL1        0.0000
      4 SI         11.3416    0.4141   11.0940 Si      1  UNL1        0.0000
      5 SI          6.5205    2.9808    7.5003 Si      1  UNL1        0.0000
      6 SI          7.1395    2.4578   13.2475 Si      1  UNL1        0.0000
      7 C           8.6979   -0.1369   10.7807 C.3     1  UNL1        0.0000
      8 C           7.6486    0.1773   11.8599 C.3     1  UNL1        0.0000
      9 C           5.8275    1.5575   11.0345 C.3     1  UNL1        0.0000
     10 C           5.9554    1.2885    9.5297 C.3     1  UNL1        0.0000
     11 C           6.2690    1.3899   14.5937 C.3     1  UNL1        0.0000
     12 C           8.9656    2.7198   13.7068 C.3     1  UNL1        0.0000
     13 C           6.1188    4.0580   13.0890 C.3     1  UNL1        0.0000
     14 C          11.9601    0.7241   12.8954 C.3     1  UNL1        0.0000
     15 C          12.5990    1.2888    9.9423 C.3     1  UNL1        0.0000
     16 C          11.6327   -1.4649   10.8093 C.3     1  UNL1        0.0000
     17 C           6.4807    1.8029    5.9679 C.3     1  UNL1        0.0000
     18 C           7.7973    4.3560    7.1299 C.3     1  UNL1        0.0000
     19 C           4.7597    3.7643    7.5213 C.3     1  UNL1        0.0000
     20 H           9.0822   -1.1506   10.9761 H       1  UNL1        0.0000
     21 H           8.2034   -0.1811    9.7914 H       1  UNL1        0.0000
     22 H           8.1604    0.0810   12.8240 H       1  UNL1        0.0000
     23 H           6.8350   -0.5652   11.8380 H       1  UNL1        0.0000
     24 H           5.1265    0.8337   11.4874 H       1  UNL1        0.0000
     25 H           5.4066    2.5615   11.1372 H       1  UNL1        0.0000
     26 H           6.2300    0.2261    9.3620 H       1  UNL1        0.0000
     27 H           4.9511    1.4056    9.0911 H       1  UNL1        0.0000
     28 H           6.1400    1.9616   15.5064 H       1  UNL1        0.0000
     29 H           6.8355    0.5000   14.8510 H       1  UNL1        0.0000
     30 H           5.2812    1.0674   14.2755 H       1  UNL1        0.0000
     31 H           9.2382    3.7677   13.6327 H       1  UNL1        0.0000
     32 H           9.1847    2.3964   14.7200 H       1  UNL1        0.0000
     33 H           9.5980    2.1650   13.0151 H       1  UNL1        0.0000
     34 H           6.4301    4.7710   13.8451 H       1  UNL1        0.0000
     35 H           6.2651    4.5284   12.1212 H       1  UNL1        0.0000
     36 H           5.0565    3.8832   13.2314 H       1  UNL1        0.0000
     37 H          12.9549    0.3088   13.0270 H       1  UNL1        0.0000
     38 H          12.0202    1.7826   13.1299 H       1  UNL1        0.0000
     39 H          11.3163    0.2593   13.6380 H       1  UNL1        0.0000
     40 H          13.6100    1.0448   10.2518 H       1  UNL1        0.0000
     41 H          12.4967    2.3674    9.9790 H       1  UNL1        0.0000
     42 H          12.4925    0.9784    8.9064 H       1  UNL1        0.0000
     43 H          12.6919   -1.6995   10.8247 H       1  UNL1        0.0000
     44 H          11.1602   -2.0657   11.5812 H       1  UNL1        0.0000
     45 H          11.2416   -1.7917    9.8493 H       1  UNL1        0.0000
     46 H           6.0346    2.2928    5.1081 H       1  UNL1        0.0000
     47 H           7.4754    1.4767    5.6748 H       1  UNL1        0.0000
     48 H           5.8904    0.9134    6.1736 H       1  UNL1        0.0000
     49 H           7.3048    5.2516    6.7681 H       1  UNL1        0.0000
     50 H           8.3617    4.6163    8.0216 H       1  UNL1        0.0000
     51 H           8.5003    4.0427    6.3639 H       1  UNL1        0.0000
     52 H           4.6159    4.4382    6.6830 H       1  UNL1        0.0000
     53 H           4.5784    4.3273    8.4322 H       1  UNL1        0.0000
     54 H           3.9914    2.9992    7.4520 H       1  UNL1        0.0000
@<TRIPOS>BOND
     1    46    17    1
     2    47    17    1
     3    17    48    1
     4    17     5    1
     5    51    18    1
     6    52    19    1
     7    49    18    1
     8    18     5    1
     9    18    50    1
    10    54    19    1
    11     5    19    1
    12     5     2    1
    13    19    53    1
    14    42    15    1
    15     2    10    1
    16    27    10    1
    17    26    10    1
    18    10     9    1
    19    21     7    1
    20    45    16    1
    21    15    41    1
    22    15    40    1
    23    15     4    1
    24     7     1    1
    25     7    20    1
    26     7     8    1
    27     1     4    1
    28    16    43    1
    29    16     4    1
    30    16    44    1
    31     9    25    1
    32     9    24    1
    33     9     3    1
    34     4    14    1
    35     3     8    1
    36     3     6    1
    37    23     8    1
    38     8    22    1
    39    35    13    1
    40    14    37    1
    41    14    38    1
    42    14    39    1
    43    33    12    1
    44    13    36    1
    45    13     6    1
    46    13    34    1
    47     6    12    1
    48     6    11    1
    49    31    12    1
    50    12    32    1
    51    30    11    1
    52    11    29    1
    53    11    28    1
