@<TRIPOS>MOLECULE
1,2,3
 57 58 0 0 0
SMALL
GASTEIGER

@<TRIPOS>ATOM
      1 N          -0.0293    5.0963   18.4459 N.3     1  UNL1        0.0000
      2 N           0.4849    7.2103   19.7555 N.3     1  UNL1        0.0000
      3 N          -0.6136    7.2576   21.6421 N.3     1  UNL1        0.0000
      4 SI         -1.1185    7.3821   23.2808 Si      1  UNL1        0.0000
      5 SI         -0.9444    3.9488   17.5623 Si      1  UNL1        0.0000
      6 C           0.8865    6.0115   17.7984 C.3     1  UNL1        0.0000
      7 H           0.3273    6.7334   17.1685 H       1  UNL1        0.0000
      8 C           1.5824    6.8275   18.9066 C.3     1  UNL1        0.0000
      9 H           2.2799    6.1634   19.4519 H       1  UNL1        0.0000
     10 C           2.3956    7.9734   18.3023 C.3     1  UNL1        0.0000
     11 H           2.8609    8.5626   19.0973 H       1  UNL1        0.0000
     12 H           1.7305    8.6290   17.7353 H       1  UNL1        0.0000
     13 C           3.4635    7.3783   17.3861 C.3     1  UNL1        0.0000
     14 H           4.0341    8.1799   16.9120 H       1  UNL1        0.0000
     15 H           4.1576    6.7865   17.9877 H       1  UNL1        0.0000
     16 C           2.8390    6.4878   16.3120 C.3     1  UNL1        0.0000
     17 H           3.6304    6.0421   15.7053 H       1  UNL1        0.0000
     18 H           2.2224    7.1040   15.6534 H       1  UNL1        0.0000
     19 C           1.9683    5.3841   16.9143 C.3     1  UNL1        0.0000
     20 H           2.5746    4.7023   17.5139 H       1  UNL1        0.0000
     21 H           1.5004    4.8064   16.1189 H       1  UNL1        0.0000
     22 C           0.5536    7.3897   21.0621 C.3     1  UNL1        0.0000
     23 C           1.8089    7.7409   21.7781 C.ar    1  UNL1        0.0000
     24 C           2.7490    6.7719   22.1112 C.ar    1  UNL1        0.0000
     25 H           2.5652    5.7363   21.8584 H       1  UNL1        0.0000
     26 C           3.9070    7.1295   22.7803 C.ar    1  UNL1        0.0000
     27 H           4.6315    6.3721   23.0415 H       1  UNL1        0.0000
     28 C           4.1372    8.4529   23.1173 C.ar    1  UNL1        0.0000
     29 H           5.0414    8.7286   23.6394 H       1  UNL1        0.0000
     30 C           3.2050    9.4217   22.7841 C.ar    1  UNL1        0.0000
     31 H           3.3822   10.4547   23.0449 H       1  UNL1        0.0000
     32 C           2.0457    9.0691   22.1165 C.ar    1  UNL1        0.0000
     33 H           1.3145    9.8187   21.8517 H       1  UNL1        0.0000
     34 C          -2.7056    6.3189   23.3174 C.3     1  UNL1        0.0000
     35 H          -3.6006    6.9332   23.3346 H       1  UNL1        0.0000
     36 H          -2.7447    5.6716   24.1884 H       1  UNL1        0.0000
     37 H          -2.7367    5.6961   22.4202 H       1  UNL1        0.0000
     38 C           0.1341    6.7770   24.6053 C.3     1  UNL1        0.0000
     39 H           0.3862    5.7282   24.4762 H       1  UNL1        0.0000
     40 H          -0.2791    6.8922   25.6027 H       1  UNL1        0.0000
     41 H           1.0601    7.3449   24.5684 H       1  UNL1        0.0000
     42 C          -1.5065    9.2120   23.7044 C.3     1  UNL1        0.0000
     43 H          -0.5990    9.8028   23.7839 H       1  UNL1        0.0000
     44 H          -2.0208    9.2768   24.6573 H       1  UNL1        0.0000
     45 H          -2.1415    9.6778   22.9572 H       1  UNL1        0.0000
     46 C           0.1116    2.4931   16.8565 C.3     1  UNL1        0.0000
     47 H           0.5014    2.7142   15.8684 H       1  UNL1        0.0000
     48 H          -0.4909    1.5949   16.7680 H       1  UNL1        0.0000
     49 H           0.9563    2.2587   17.4966 H       1  UNL1        0.0000
     50 C          -1.9048    4.6732   16.0511 C.3     1  UNL1        0.0000
     51 H          -2.7312    5.2969   16.3822 H       1  UNL1        0.0000
     52 H          -2.3159    3.8874   15.4252 H       1  UNL1        0.0000
     53 H          -1.2580    5.2804   15.4233 H       1  UNL1        0.0000
     54 C          -2.2383    3.1576   18.7259 C.3     1  UNL1        0.0000
     55 H          -1.7604    2.5478   19.4860 H       1  UNL1        0.0000
     56 H          -2.9268    2.5225   18.1763 H       1  UNL1        0.0000
     57 H          -2.8098    3.9340   19.2350 H       1  UNL1        0.0000
@<TRIPOS>BOND
     1    53    50    1
     2    52    50    1
     3    18    16    1
     4    17    16    1
     5    47    46    1
     6    50    51    1
     7    50     5    1
     8    21    19    1
     9    16    19    1
    10    16    13    1
    11    48    46    1
    12    46    49    1
    13    46     5    1
    14    14    13    1
    15    19    20    1
    16    19     6    1
    17     7     6    1
    18    13    15    1
    19    13    10    1
    20     5     1    1
    21     5    54    1
    22    12    10    1
    23     6     1    1
    24     6     8    1
    25    56    54    1
    26    10     8    1
    27    10    11    1
    28    54    57    1
    29    54    55    1
    30     8     9    1
    31     8     2    1
    32     2    22    1
    33    22     3    1
    34    22    23    1
    35     3     4    1
    36    23    24   ar
    37    23    32   ar
    38    33    32    1
    39    25    24    1
    40    24    26   ar
    41    32    30   ar
    42    37    34    1
    43    26    27    1
    44    26    28   ar
    45    30    31    1
    46    30    28   ar
    47    45    42    1
    48    28    29    1
    49     4    34    1
    50     4    42    1
    51     4    38    1
    52    34    35    1
    53    34    36    1
    54    42    43    1
    55    42    44    1
    56    39    38    1
    57    41    38    1
    58    38    40    1
