@<TRIPOS>MOLECULE
1,2,3
 49 49 0 0 0
SMALL
GASTEIGER

@<TRIPOS>ATOM
      1 N           6.0865    4.2544   14.9093 N.3     1  UNL1        0.0000
      2 N           3.2821    3.5908   14.7027 N.3     1  UNL1        0.0000
      3 N           5.3698    2.3062   17.2901 N.pl3   1  UNL1        0.0000
      4 SI          6.9358    5.2472   13.7791 Si      1  UNL1        0.0000
      5 SI          1.8220    3.4982   13.7795 Si      1  UNL1        0.0000
      6 C           5.3212    1.1147   17.8719 C.3     1  UNL1        0.0000
      7 C           4.1829    0.6054   18.4668 C.2     1  UNL1        0.0000
      8 C           3.0185    1.3547   18.3881 C.2     1  UNL1        0.0000
      9 C           3.0618    2.5984   17.7867 C.2     1  UNL1        0.0000
     10 C           4.2730    3.0612   17.2703 C.2     1  UNL1        0.0000
     11 C           4.4113    4.4740   16.7433 C.3     1  UNL1        0.0000
     12 C           5.8438    4.7552   16.2369 C.3     1  UNL1        0.0000
     13 C           3.4036    4.7127   15.5979 C.3     1  UNL1        0.0000
     14 C           4.1193    5.4383   17.9051 C.3     1  UNL1        0.0000
     15 C           8.5498    4.3650   13.2325 C.3     1  UNL1        0.0000
     16 C           7.4650    6.9402   14.5047 C.3     1  UNL1        0.0000
     17 C           5.7834    5.5632   12.2865 C.3     1  UNL1        0.0000
     18 C           0.2865    3.9101   14.8618 C.3     1  UNL1        0.0000
     19 C           1.8202    4.7581   12.3282 C.3     1  UNL1        0.0000
     20 C           1.6117    1.7213   13.1257 C.3     1  UNL1        0.0000
     21 H           6.2479    0.5510   17.8594 H       1  UNL1        0.0000
     22 H           4.1966   -0.3634   18.9394 H       1  UNL1        0.0000
     23 H           2.0907    0.9734   18.7890 H       1  UNL1        0.0000
     24 H           2.1694    3.2010   17.7064 H       1  UNL1        0.0000
     25 H           6.5559    4.3199   16.9630 H       1  UNL1        0.0000
     26 H           5.9859    5.8423   16.2734 H       1  UNL1        0.0000
     27 H           2.4284    4.9593   16.0394 H       1  UNL1        0.0000
     28 H           3.7435    5.6063   15.0379 H       1  UNL1        0.0000
     29 H           4.1332    6.4660   17.5466 H       1  UNL1        0.0000
     30 H           4.8762    5.3322   18.6817 H       1  UNL1        0.0000
     31 H           3.1446    5.2438   18.3478 H       1  UNL1        0.0000
     32 H           8.8838    4.7352   12.2693 H       1  UNL1        0.0000
     33 H           9.3638    4.5207   13.9352 H       1  UNL1        0.0000
     34 H           8.3776    3.2972   13.1402 H       1  UNL1        0.0000
     35 H           8.0566    7.4854   13.7775 H       1  UNL1        0.0000
     36 H           8.0705    6.8293   15.3990 H       1  UNL1        0.0000
     37 H           6.6103    7.5607   14.7556 H       1  UNL1        0.0000
     38 H           6.3323    5.6569   11.3553 H       1  UNL1        0.0000
     39 H           5.1899    6.4648   12.4078 H       1  UNL1        0.0000
     40 H           5.1044    4.7157   12.2129 H       1  UNL1        0.0000
     41 H           0.2766    3.3427   15.7883 H       1  UNL1        0.0000
     42 H           0.2355    4.9655   15.1123 H       1  UNL1        0.0000
     43 H          -0.6224    3.6641   14.3233 H       1  UNL1        0.0000
     44 H           0.9121    4.6745   11.7399 H       1  UNL1        0.0000
     45 H           1.8794    5.7791   12.6942 H       1  UNL1        0.0000
     46 H           2.6646    4.5960   11.6660 H       1  UNL1        0.0000
     47 H           0.9730    1.6980   12.2489 H       1  UNL1        0.0000
     48 H           1.1699    1.0722   13.8753 H       1  UNL1        0.0000
     49 H           2.5806    1.3053   12.8640 H       1  UNL1        0.0000
@<TRIPOS>BOND
     1    38    17    1
     2    46    19    1
     3    44    19    1
     4    40    17    1
     5    47    20    1
     6    32    15    1
     7    17    39    1
     8    17     4    1
     9    19    45    1
    10    19     5    1
    11    49    20    1
    12    20     5    1
    13    20    48    1
    14    34    15    1
    15    15     4    1
    16    15    33    1
    17    35    16    1
    18     4    16    1
    19     4     1    1
    20     5     2    1
    21     5    18    1
    22    43    18    1
    23    16    37    1
    24    16    36    1
    25     2    13    1
    26    18    42    1
    27    18    41    1
    28     1    12    1
    29    28    13    1
    30    13    27    1
    31    13    11    1
    32    12    26    1
    33    12    11    1
    34    12    25    1
    35    11    10    1
    36    11    14    1
    37    10     3    1
    38    10     9    2
    39     3     6    1
    40    29    14    1
    41    24     9    1
    42     9     8    1
    43    21     6    1
    44     6     7    1
    45    14    31    1
    46    14    30    1
    47     8     7    2
    48     8    23    1
    49     7    22    1
