@<TRIPOS>MOLECULE
1,2,3
 49 49 0 0 0
SMALL
GASTEIGER

@<TRIPOS>ATOM
      1 N          17.2002    4.0755   18.4833 N.3     1  UNL1        0.0000
      2 N          20.0131    3.4594   18.7716 N.3     1  UNL1        0.0000
      3 N          18.5819    2.1757   16.3875 N.pl3   1  UNL1        0.0000
      4 SI         16.4130    5.1433   19.5864 Si      1  UNL1        0.0000
      5 SI         21.5206    3.3030   19.5977 Si      1  UNL1        0.0000
      6 C          18.8082    1.0099   15.7962 C.3     1  UNL1        0.0000
      7 H          18.1540    0.2004   16.0913 H       1  UNL1        0.0000
      8 C          19.8131    0.8182   14.8675 C.2     1  UNL1        0.0000
      9 H          19.9572   -0.1453   14.4060 H       1  UNL1        0.0000
     10 C          20.6440    1.8908   14.5802 C.2     1  UNL1        0.0000
     11 H          21.4709    1.7784   13.8938 H       1  UNL1        0.0000
     12 C          20.3978    3.1110   15.1818 C.2     1  UNL1        0.0000
     13 H          21.0351    3.9538   14.9704 H       1  UNL1        0.0000
     14 C          19.3320    3.2294   16.0718 C.2     1  UNL1        0.0000
     15 C          18.9627    4.5243   16.7489 C.3     1  UNL1        0.0000
     16 C          17.4537    4.5120   17.1371 C.3     1  UNL1        0.0000
     17 H          17.0661    5.5216   16.9796 H       1  UNL1        0.0000
     18 H          16.9274    3.8589   16.4199 H       1  UNL1        0.0000
     19 C          19.8415    4.6746   18.0162 C.3     1  UNL1        0.0000
     20 H          20.8170    5.0575   17.6976 H       1  UNL1        0.0000
     21 H          19.3679    5.4460   18.6466 H       1  UNL1        0.0000
     22 C          19.2105    5.7274   15.8301 C.3     1  UNL1        0.0000
     23 H          18.9103    6.6408   16.3395 H       1  UNL1        0.0000
     24 H          18.6280    5.6335   14.9147 H       1  UNL1        0.0000
     25 H          20.2601    5.8298   15.5658 H       1  UNL1        0.0000
     26 C          14.8223    4.2913   20.2286 C.3     1  UNL1        0.0000
     27 H          15.0124    3.2338   20.3743 H       1  UNL1        0.0000
     28 H          13.9862    4.3985   19.5433 H       1  UNL1        0.0000
     29 H          14.5127    4.7118   21.1790 H       1  UNL1        0.0000
     30 C          15.8636    6.7898   18.7748 C.3     1  UNL1        0.0000
     31 H          16.7073    7.3739   18.4216 H       1  UNL1        0.0000
     32 H          15.3335    7.3955   19.5012 H       1  UNL1        0.0000
     33 H          15.1928    6.6296   17.9367 H       1  UNL1        0.0000
     34 C          17.5893    5.5702   21.0299 C.3     1  UNL1        0.0000
     35 H          18.2156    6.4326   20.8200 H       1  UNL1        0.0000
     36 H          18.2344    4.7124   21.1939 H       1  UNL1        0.0000
     37 H          17.0480    5.7780   21.9470 H       1  UNL1        0.0000
     38 C          22.9679    3.5836   18.3620 C.3     1  UNL1        0.0000
     39 H          23.1154    4.6367   18.1426 H       1  UNL1        0.0000
     40 H          22.7991    3.0666   17.4213 H       1  UNL1        0.0000
     41 H          23.8971    3.2102   18.7789 H       1  UNL1        0.0000
     42 C          21.7039    4.6085   20.9957 C.3     1  UNL1        0.0000
     43 H          20.9204    4.5027   21.7393 H       1  UNL1        0.0000
     44 H          21.6442    5.6176   20.5982 H       1  UNL1        0.0000
     45 H          22.6592    4.5128   21.5018 H       1  UNL1        0.0000
     46 C          21.7134    1.5564   20.3252 C.3     1  UNL1        0.0000
     47 H          20.8018    1.2394   20.8195 H       1  UNL1        0.0000
     48 H          22.5215    1.5323   21.0489 H       1  UNL1        0.0000
     49 H          21.9367    0.8256   19.5550 H       1  UNL1        0.0000
@<TRIPOS>BOND
     1    11    10    1
     2     9     8    1
     3    10     8    2
     4    10    12    1
     5     8     6    1
     6    24    22    1
     7    13    12    1
     8    12    14    2
     9    25    22    1
    10     6     7    1
    11     6     3    1
    12    22    23    1
    13    22    15    1
    14    14     3    1
    15    14    15    1
    16    18    16    1
    17    15    16    1
    18    15    19    1
    19    17    16    1
    20    16     1    1
    21    40    38    1
    22    20    19    1
    23    33    30    1
    24    19    21    1
    25    19     2    1
    26    39    38    1
    27    38    41    1
    28    38     5    1
    29    31    30    1
    30     1     4    1
    31     2     5    1
    32    30    32    1
    33    30     4    1
    34    28    26    1
    35    49    46    1
    36     4    26    1
    37     4    34    1
    38     5    46    1
    39     5    42    1
    40    26    27    1
    41    26    29    1
    42    46    47    1
    43    46    48    1
    44    44    42    1
    45    35    34    1
    46    42    45    1
    47    42    43    1
    48    34    36    1
    49    34    37    1
