@<TRIPOS>MOLECULE
1,2,3
 49 49 0 0 0
SMALL
GASTEIGER

@<TRIPOS>ATOM
      1 N           3.8353    1.8946   13.3118 N.3     1  UNL1        0.0000
      2 N           5.9183    3.5378   11.9991 N.3     1  UNL1        0.0000
      3 N           3.3309    3.5431   10.7623 N.pl3   1  UNL1        0.0000
      4 SI          3.3899    0.7177   14.5025 Si      1  UNL1        0.0000
      5 SI          7.1146    4.2315   10.9659 Si      1  UNL1        0.0000
      6 C           2.9647    3.6381    9.4901 C.3     1  UNL1        0.0000
      7 C           2.6141    4.8335    8.8918 C.2     1  UNL1        0.0000
      8 C           2.6769    5.9865    9.6591 C.2     1  UNL1        0.0000
      9 C           3.0579    5.8893   10.9851 C.2     1  UNL1        0.0000
     10 C           3.3686    4.6405   11.5198 C.2     1  UNL1        0.0000
     11 C           3.7597    4.4167   12.9536 C.3     1  UNL1        0.0000
     12 C           3.0793    3.1168   13.4666 C.3     1  UNL1        0.0000
     13 C           5.3108    4.2978   13.0507 C.3     1  UNL1        0.0000
     14 C           3.3159    5.5709   13.8604 C.3     1  UNL1        0.0000
     15 C           1.4874    0.4141   14.4820 C.3     1  UNL1        0.0000
     16 C           4.2154   -0.9654   14.1949 C.3     1  UNL1        0.0000
     17 C           3.8014    1.3830   16.2583 C.3     1  UNL1        0.0000
     18 C           6.3576    5.0605    9.4029 C.3     1  UNL1        0.0000
     19 C           8.3257    2.8525   10.4387 C.3     1  UNL1        0.0000
     20 C           8.0729    5.6142   11.8821 C.3     1  UNL1        0.0000
     21 H           2.9671    2.7115    8.9318 H       1  UNL1        0.0000
     22 H           2.3153    4.8610    7.8564 H       1  UNL1        0.0000
     23 H           2.4319    6.9479    9.2316 H       1  UNL1        0.0000
     24 H           3.1111    6.7777   11.5916 H       1  UNL1        0.0000
     25 H           2.8627    3.2750   14.5283 H       1  UNL1        0.0000
     26 H           2.0990    3.0257   12.9659 H       1  UNL1        0.0000
     27 H           5.5246    3.8135   14.0159 H       1  UNL1        0.0000
     28 H           5.7227    5.3104   13.0809 H       1  UNL1        0.0000
     29 H           3.5922    5.3496   14.8889 H       1  UNL1        0.0000
     30 H           2.2362    5.7049   13.8145 H       1  UNL1        0.0000
     31 H           3.8002    6.5053   13.5862 H       1  UNL1        0.0000
     32 H           1.2042   -0.2983   15.2500 H       1  UNL1        0.0000
     33 H           0.9340    1.3293   14.6698 H       1  UNL1        0.0000
     34 H           1.1512    0.0170   13.5280 H       1  UNL1        0.0000
     35 H           4.5181   -1.4184   15.1315 H       1  UNL1        0.0000
     36 H           5.0938   -0.8609   13.5719 H       1  UNL1        0.0000
     37 H           3.5324   -1.6532   13.7081 H       1  UNL1        0.0000
     38 H           4.0292    0.5705   16.9398 H       1  UNL1        0.0000
     39 H           4.6599    2.0466   16.2409 H       1  UNL1        0.0000
     40 H           2.9660    1.9323   16.6829 H       1  UNL1        0.0000
     41 H           7.1391    5.4667    8.7681 H       1  UNL1        0.0000
     42 H           5.6832    5.8761    9.6538 H       1  UNL1        0.0000
     43 H           5.8017    4.3376    8.8126 H       1  UNL1        0.0000
     44 H           9.3600    3.1306   10.6134 H       1  UNL1        0.0000
     45 H           8.1260    1.9301   10.9776 H       1  UNL1        0.0000
     46 H           8.2175    2.6430    9.3796 H       1  UNL1        0.0000
     47 H           8.9463    5.9001   11.3073 H       1  UNL1        0.0000
     48 H           8.4112    5.2957   12.8618 H       1  UNL1        0.0000
     49 H           7.4682    6.5062   12.0101 H       1  UNL1        0.0000
@<TRIPOS>BOND
     1    22     7    1
     2    41    18    1
     3    43    18    1
     4     7     6    1
     5     7     8    2
     6    21     6    1
     7    23     8    1
     8    46    19    1
     9    18    42    1
    10    18     5    1
    11     6     3    1
    12     8     9    1
    13    19    44    1
    14    19     5    1
    15    19    45    1
    16     3    10    1
    17     5    20    1
    18     5     2    1
    19     9    10    2
    20     9    24    1
    21    47    20    1
    22    10    11    1
    23    20    49    1
    24    20    48    1
    25     2    13    1
    26    11    13    1
    27    11    12    1
    28    11    14    1
    29    26    12    1
    30    13    28    1
    31    13    27    1
    32     1    12    1
    33     1     4    1
    34    12    25    1
    35    34    15    1
    36    36    16    1
    37    31    14    1
    38    37    16    1
    39    30    14    1
    40    14    29    1
    41    16     4    1
    42    16    35    1
    43    15     4    1
    44    15    33    1
    45    15    32    1
    46     4    17    1
    47    39    17    1
    48    17    40    1
    49    17    38    1
