@<TRIPOS>MOLECULE
4,5,6
 61 60 0 0 0
SMALL
GASTEIGER

@<TRIPOS>ATOM
      1 SI        -11.8840    2.8007  -11.6703 Si      1  UNL1        0.0000
      2 SI        -12.9698   -3.1302  -11.5869 Si      1  UNL1        0.0000
      3 SI        -17.1161    0.2415  -11.6326 Si      1  UNL1        0.0000
      4 N         -12.1706    1.2075  -11.0656 N.3     1  UNL1        0.0000
      5 N         -14.0116   -1.9743  -10.8458 N.3     1  UNL1        0.0000
      6 N         -15.5804    0.7408  -11.0202 N.3     1  UNL1        0.0000
      7 N         -13.7282    0.1385   -9.1099 N.3     1  UNL1        0.0000
      8 C         -11.5443    0.8434   -9.8192 C.3     1  UNL1        0.0000
      9 H         -10.6793    1.4686   -9.5788 H       1  UNL1        0.0000
     10 H         -11.1964   -0.1980   -9.8663 H       1  UNL1        0.0000
     11 C         -12.5982    0.9743   -8.7201 C.3     1  UNL1        0.0000
     12 H         -12.2125    0.7006   -7.7275 H       1  UNL1        0.0000
     13 H         -12.9165    2.0201   -8.7016 H       1  UNL1        0.0000
     14 C         -14.4110   -2.1532   -9.4736 C.3     1  UNL1        0.0000
     15 H         -14.2796   -3.1854   -9.1321 H       1  UNL1        0.0000
     16 H         -15.4813   -1.9119   -9.3841 H       1  UNL1        0.0000
     17 C         -13.5871   -1.2190   -8.5905 C.3     1  UNL1        0.0000
     18 H         -12.5389   -1.5215   -8.6759 H       1  UNL1        0.0000
     19 H         -13.8873   -1.2776   -7.5322 H       1  UNL1        0.0000
     20 C         -15.5610    1.5591   -9.8270 C.3     1  UNL1        0.0000
     21 H         -16.5549    1.9318   -9.5586 H       1  UNL1        0.0000
     22 H         -14.9130    2.4297   -9.9930 H       1  UNL1        0.0000
     23 C         -15.0031    0.7251   -8.6781 C.3     1  UNL1        0.0000
     24 H         -15.7191   -0.0730   -8.4705 H       1  UNL1        0.0000
     25 H         -14.8743    1.3183   -7.7621 H       1  UNL1        0.0000
     26 C         -13.4823    3.8356  -11.9179 C.3     1  UNL1        0.0000
     27 H         -13.6882    4.4722  -11.0617 H       1  UNL1        0.0000
     28 H         -14.3446    3.1964  -12.0781 H       1  UNL1        0.0000
     29 H         -13.3874    4.4842  -12.7824 H       1  UNL1        0.0000
     30 C         -10.8154    3.8419  -10.4568 C.3     1  UNL1        0.0000
     31 H         -11.2317    3.8722   -9.4542 H       1  UNL1        0.0000
     32 H         -10.7433    4.8664  -10.8075 H       1  UNL1        0.0000
     33 H          -9.8028    3.4574  -10.3839 H       1  UNL1        0.0000
     34 C         -10.8589    2.7912  -13.2934 C.3     1  UNL1        0.0000
     35 H         -11.4876    2.6889  -14.1702 H       1  UNL1        0.0000
     36 H         -10.1352    1.9821  -13.3062 H       1  UNL1        0.0000
     37 H         -10.3127    3.7237  -13.3956 H       1  UNL1        0.0000
     38 C         -11.1808   -2.4233  -11.7021 C.3     1  UNL1        0.0000
     39 H         -10.6066   -2.6407  -10.8044 H       1  UNL1        0.0000
     40 H         -11.2096   -1.3390  -11.8322 H       1  UNL1        0.0000
     41 H         -10.6310   -2.8455  -12.5374 H       1  UNL1        0.0000
     42 C         -12.8338   -4.7515  -10.5751 C.3     1  UNL1        0.0000
     43 H         -13.8073   -5.2048  -10.4169 H       1  UNL1        0.0000
     44 H         -12.3775   -4.5925   -9.6026 H       1  UNL1        0.0000
     45 H         -12.2226   -5.4741  -11.1053 H       1  UNL1        0.0000
     46 C         -13.6423   -3.6370  -13.3047 C.3     1  UNL1        0.0000
     47 H         -14.2551   -4.5297  -13.2329 H       1  UNL1        0.0000
     48 H         -12.8316   -3.8530  -13.9918 H       1  UNL1        0.0000
     49 H         -14.2529   -2.8563  -13.7439 H       1  UNL1        0.0000
     50 C         -16.9027   -1.3424  -12.6723 C.3     1  UNL1        0.0000
     51 H         -16.5639   -1.1164  -13.6770 H       1  UNL1        0.0000
     52 H         -17.8461   -1.8708  -12.7627 H       1  UNL1        0.0000
     53 H         -16.1804   -2.0156  -12.2141 H       1  UNL1        0.0000
     54 C         -18.3258   -0.2003  -10.2044 C.3     1  UNL1        0.0000
     55 H         -18.4835    0.6390   -9.5339 H       1  UNL1        0.0000
     56 H         -17.9646   -1.0344   -9.6092 H       1  UNL1        0.0000
     57 H         -19.2968   -0.4815  -10.5989 H       1  UNL1        0.0000
     58 C         -17.9937    1.6109  -12.6529 C.3     1  UNL1        0.0000
     59 H         -17.5262    1.7609  -13.6208 H       1  UNL1        0.0000
     60 H         -17.9762    2.5632  -12.1306 H       1  UNL1        0.0000
     61 H         -19.0333    1.3543  -12.8299 H       1  UNL1        0.0000
@<TRIPOS>BOND
     1    35    34    1
     2    48    46    1
     3    49    46    1
     4    51    50    1
     5    59    58    1
     6    37    34    1
     7    36    34    1
     8    46    47    1
     9    46     2    1
    10    34     1    1
    11    61    58    1
    12    29    26    1
    13    52    50    1
    14    50    53    1
    15    50     3    1
    16    58    60    1
    17    58     3    1
    18    41    38    1
    19    28    26    1
    20    26     1    1
    21    26    27    1
    22    40    38    1
    23    38     2    1
    24    38    39    1
    25     1     4    1
    26     1    30    1
    27     3     6    1
    28     3    54    1
    29     2     5    1
    30     2    42    1
    31    45    42    1
    32     4     8    1
    33     6    20    1
    34     5    14    1
    35    32    30    1
    36    57    54    1
    37    42    43    1
    38    42    44    1
    39    30    33    1
    40    30    31    1
    41    54    56    1
    42    54    55    1
    43    22    20    1
    44    10     8    1
    45    20    21    1
    46    20    23    1
    47     8     9    1
    48     8    11    1
    49    14    16    1
    50    14    15    1
    51    14    17    1
    52     7    11    1
    53     7    23    1
    54     7    17    1
    55    11    13    1
    56    11    12    1
    57    23    24    1
    58    23    25    1
    59    18    17    1
    60    17    19    1
