@<TRIPOS>MOLECULE
1,3,5
 44 46 0 0 0
SMALL
GASTEIGER

@<TRIPOS>ATOM
      1 N           1.3955    3.2190   13.2112 N.3     1  UNL1        0.0000
      2 N           1.9711    2.3125   14.0274 N.pl3   1  UNL1        0.0000
      3 N           0.0372    0.9371   12.2316 N.3     1  UNL1        0.0000
      4 N           0.7634    0.3231   13.1802 N.pl3   1  UNL1        0.0000
      5 N           2.6705    1.5142   11.2472 N.3     1  UNL1        0.0000
      6 N           3.0413    0.8393   12.3489 N.pl3   1  UNL1        0.0000
      7 B           2.1488    0.8529   13.5982 B       1  UNL1        0.0000
      8 H           2.6088    0.1999   14.4629 H       1  UNL1        0.0000
      9 C           1.3924    4.3964   13.8372 C.3     1  UNL1        0.0000
     10 C           1.9874    4.2348   15.0912 C.2     1  UNL1        0.0000
     11 H           2.1364    4.9938   15.8320 H       1  UNL1        0.0000
     12 C           2.3423    2.9039   15.1766 C.2     1  UNL1        0.0000
     13 C          -1.0922    0.2528   12.0569 C.3     1  UNL1        0.0000
     14 C          -1.0882   -0.8368   12.9292 C.2     1  UNL1        0.0000
     15 H          -1.8534   -1.5783   13.0366 H       1  UNL1        0.0000
     16 C           0.1038   -0.7597   13.6256 C.2     1  UNL1        0.0000
     17 C           3.6013    1.3316   10.3149 C.3     1  UNL1        0.0000
     18 C           4.6075    0.5161   10.8404 C.2     1  UNL1        0.0000
     19 H           5.4977    0.1891   10.3425 H       1  UNL1        0.0000
     20 C           4.2180    0.2244   12.1338 C.2     1  UNL1        0.0000
     21 C           0.8494    5.6649   13.2885 C.3     1  UNL1        0.0000
     22 H          -0.1364    5.5050   12.8571 H       1  UNL1        0.0000
     23 H           1.4975    6.0408   12.4982 H       1  UNL1        0.0000
     24 H           0.7906    6.4063   14.0817 H       1  UNL1        0.0000
     25 C           3.0118    2.1955   16.2987 C.3     1  UNL1        0.0000
     26 H           3.9622    1.7730   15.9767 H       1  UNL1        0.0000
     27 H           2.3891    1.3838   16.6711 H       1  UNL1        0.0000
     28 H           3.1963    2.8971   17.1078 H       1  UNL1        0.0000
     29 C          -2.1509    0.6107   11.0773 C.3     1  UNL1        0.0000
     30 H          -2.4776    1.6375   11.2316 H       1  UNL1        0.0000
     31 H          -2.9967   -0.0616   11.1951 H       1  UNL1        0.0000
     32 H          -1.7713    0.5262   10.0597 H       1  UNL1        0.0000
     33 C           0.6178   -1.6728   14.6790 C.3     1  UNL1        0.0000
     34 H           1.5605   -2.1233   14.3732 H       1  UNL1        0.0000
     35 H          -0.1075   -2.4619   14.8579 H       1  UNL1        0.0000
     36 H           0.7874   -1.1323   15.6083 H       1  UNL1        0.0000
     37 C           3.5240    1.8977    8.9425 C.3     1  UNL1        0.0000
     38 H           2.8541    1.2980    8.3245 H       1  UNL1        0.0000
     39 H           4.5113    1.8948    8.4873 H       1  UNL1        0.0000
     40 H           3.1431    2.9165    8.9757 H       1  UNL1        0.0000
     41 C           4.9174   -0.6042   13.1502 C.3     1  UNL1        0.0000
     42 H           5.1487   -0.0143   14.0354 H       1  UNL1        0.0000
     43 H           5.8443   -0.9857   12.7303 H       1  UNL1        0.0000
     44 H           4.2974   -1.4450   13.4574 H       1  UNL1        0.0000
@<TRIPOS>BOND
     1    38    37    1
     2    39    37    1
     3    37    40    1
     4    37    17    1
     5    32    29    1
     6    17    18    1
     7    17     5    1
     8    19    18    1
     9    18    20    2
    10    29    31    1
    11    29    30    1
    12    29    13    1
    13     5     6    1
    14    13     3    1
    15    13    14    1
    16    20     6    1
    17    20    41    1
    18     3     4    1
    19     6     7    1
    20    23    21    1
    21    43    41    1
    22    22    21    1
    23    14    15    1
    24    14    16    2
    25    41    44    1
    26    41    42    1
    27     4     7    1
    28     4    16    1
    29     1     9    1
    30     1     2    1
    31    21     9    1
    32    21    24    1
    33     7     2    1
    34     7     8    1
    35    16    33    1
    36     9    10    1
    37     2    12    1
    38    34    33    1
    39    33    35    1
    40    33    36    1
    41    10    12    2
    42    10    11    1
    43    12    25    1
    44    26    25    1
    45    25    27    1
    46    25    28    1
