@<TRIPOS>MOLECULE
1,2,3
 61 63 0 0 0
SMALL
GASTEIGER

@<TRIPOS>ATOM
      1 N          11.4802    8.5108   15.7398 N.pl3   1  UNL1       -0.2171
      2 N          10.4421   10.0686   17.4789 N.pl3   1  UNL1       -0.2154
      3 N           9.2359   11.9309   16.2322 N.pl3   1  UNL1       -0.2353
      4 C          11.7653    8.2244   16.9717 C.2     1  UNL1        0.0510
      5 C          11.1760    9.0703   17.9933 C.2     1  UNL1        0.0720
      6 C          11.2618    8.8933   19.3744 C.2     1  UNL1       -0.0371
      7 H          11.8631    8.1009   19.7885 H       1  UNL1        0.0637
      8 C          10.5505    9.7486   20.2029 C.2     1  UNL1       -0.0583
      9 H          10.5962    9.6243   21.2738 H       1  UNL1        0.0619
     10 C           9.7770   10.7591   19.6541 C.2     1  UNL1       -0.0405
     11 H           9.2115   11.4249   20.2850 H       1  UNL1        0.0634
     12 C           9.7477   10.9051   18.2663 C.2     1  UNL1        0.0586
     13 C           9.0644   11.9405   17.5178 C.3     1  UNL1        0.1181
     14 C          11.9032    7.6343   14.7056 C.ar    1  UNL1        0.0592
     15 C          11.1556    6.4798   14.4249 C.ar    1  UNL1       -0.0270
     16 C          11.5366    5.6751   13.3612 C.ar    1  UNL1       -0.0541
     17 H          10.9491    4.7951   13.1418 H       1  UNL1        0.0623
     18 C          12.6446    5.9644   12.5809 C.ar    1  UNL1       -0.0498
     19 C          13.4130    7.0655   12.9239 C.ar    1  UNL1       -0.0541
     20 H          14.3102    7.2831   12.3626 H       1  UNL1        0.0623
     21 C          13.0760    7.8926   13.9845 C.ar    1  UNL1       -0.0270
     22 C           9.9827    6.0801   15.2637 C.3     1  UNL1       -0.0379
     23 H           9.4804    5.2184   14.8311 H       1  UNL1        0.0278
     24 H           9.2675    6.8953   15.3502 H       1  UNL1        0.0278
     25 H          10.3025    5.8146   16.2716 H       1  UNL1        0.0278
     26 C          13.0329    5.0885   11.4292 C.3     1  UNL1       -0.0397
     27 H          13.8678    4.4455   11.7092 H       1  UNL1        0.0278
     28 H          13.3473    5.6913   10.5796 H       1  UNL1        0.0278
     29 H          12.2027    4.4555   11.1260 H       1  UNL1        0.0278
     30 C          14.0140    8.9809   14.3957 C.3     1  UNL1       -0.0379
     31 H          13.4775    9.8507   14.7617 H       1  UNL1        0.0278
     32 H          14.6490    9.2765   13.5654 H       1  UNL1        0.0278
     33 H          14.6561    8.6254   15.2038 H       1  UNL1        0.0278
     34 C          12.6339    7.0767   17.3890 C.3     1  UNL1       -0.0228
     35 H          12.0751    6.3869   18.0205 H       1  UNL1        0.0291
     36 H          13.4776    7.4542   17.9662 H       1  UNL1        0.0291
     37 H          13.0096    6.5389   16.5222 H       1  UNL1        0.0291
     38 C           8.2248   12.9459   18.2433 C.3     1  UNL1       -0.0340
     39 H           8.8321   13.5174   18.9443 H       1  UNL1        0.0255
     40 H           7.4516   12.4272   18.8095 H       1  UNL1        0.0255
     41 H           7.7518   13.6287   17.5418 H       1  UNL1        0.0255
     42 C           8.7822   13.0151   15.4398 C.ar    1  UNL1        0.0547
     43 C           9.5000   14.2219   15.4585 C.ar    1  UNL1       -0.0274
     44 C           9.1282   15.2393   14.5923 C.ar    1  UNL1       -0.0541
     45 H           9.6966   16.1589   14.6048 H       1  UNL1        0.0623
     46 C           8.0593   15.1105   13.7210 C.ar    1  UNL1       -0.0498
     47 C           7.3255   13.9364   13.7631 C.ar    1  UNL1       -0.0541
     48 H           6.4672   13.8245   13.1168 H       1  UNL1        0.0623
     49 C           7.6543   12.8940   14.6153 C.ar    1  UNL1       -0.0274
     50 C          10.6407   14.4628   16.4010 C.3     1  UNL1       -0.0379
     51 H          11.2994   15.2307   16.0032 H       1  UNL1        0.0278
     52 H          11.2273   13.5631   16.5639 H       1  UNL1        0.0278
     53 H          10.2684   14.8081   17.3666 H       1  UNL1        0.0278
     54 C           7.6738   16.2194   12.7910 C.3     1  UNL1       -0.0397
     55 H           6.8613   16.8053   13.2230 H       1  UNL1        0.0278
     56 H           7.3295   15.8142   11.8422 H       1  UNL1        0.0278
     57 H           8.5133   16.8874   12.6114 H       1  UNL1        0.0278
     58 C           6.7350   11.7165   14.6881 C.3     1  UNL1       -0.0379
     59 H           7.2517   10.8081   14.9783 H       1  UNL1        0.0278
     60 H           6.2520   11.5554   13.7279 H       1  UNL1        0.0278
     61 H           5.9570   11.9070   15.4299 H       1  UNL1        0.0278
@<TRIPOS>BOND
     1    28    26    1
     2    29    26    1
     3    26    27    1
     4    26    18    1
     5    56    54    1
     6    20    19    1
     7    18    19   ar
     8    18    16   ar
     9    57    54    1
    10    54    55    1
    11    54    46    1
    12    19    21   ar
    13    48    47    1
    14    17    16    1
    15    16    15   ar
    16    32    30    1
    17    46    47   ar
    18    46    44   ar
    19    60    58    1
    20    47    49   ar
    21    21    30    1
    22    21    14   ar
    23    30    31    1
    24    30    33    1
    25    15    14   ar
    26    15    22    1
    27    44    45    1
    28    44    43   ar
    29    49    58    1
    30    49    42   ar
    31    58    59    1
    32    58    61    1
    33    14     1    1
    34    23    22    1
    35    22    24    1
    36    22    25    1
    37    42    43   ar
    38    42     3    1
    39    43    50    1
    40     1     4    1
    41    51    50    1
    42     3    13    1
    43    50    52    1
    44    50    53    1
    45    37    34    1
    46     4    34    1
    47     4     5    2
    48    34    36    1
    49    34    35    1
    50     2     5    1
    51     2    12    1
    52    13    38    1
    53    13    12    1
    54    41    38    1
    55     5     6    1
    56    38    40    1
    57    38    39    1
    58    12    10    2
    59     6     7    1
    60     6     8    2
    61    10     8    1
    62    10    11    1
    63     8     9    1
