@<TRIPOS>MOLECULE
1,2,3
 61 63 0 0 0
SMALL
GASTEIGER

@<TRIPOS>ATOM
      1 N           2.1913   13.2455   12.2849 N.pl3   1  UNL1       -0.2171
      2 N          -0.0803   12.4757   12.9814 N.pl3   1  UNL1       -0.2154
      3 N          -0.2777   13.0417   15.4048 N.pl3   1  UNL1       -0.2353
      4 C           1.4366   12.8668   11.2629 C.2     1  UNL1        0.0510
      5 C           0.1272   12.4373   11.6171 C.2     1  UNL1        0.0720
      6 C          -0.9113   12.0792   10.7616 C.2     1  UNL1       -0.0371
      7 H          -0.7353   12.0150    9.6994 H       1  UNL1        0.0637
      8 C          -2.1727   11.8231   11.2825 C.2     1  UNL1       -0.0583
      9 H          -2.9804   11.5388   10.6253 H       1  UNL1        0.0619
     10 C          -2.4062   11.9767   12.6429 C.2     1  UNL1       -0.0405
     11 H          -3.3963   11.8347   13.0468 H       1  UNL1        0.0634
     12 C          -1.3564   12.3315   13.4852 C.2     1  UNL1        0.0586
     13 C          -1.4208   12.6346   14.8743 C.3     1  UNL1        0.1181
     14 C           3.4523   13.8423   12.0847 C.ar    1  UNL1        0.0592
     15 C           4.6028   13.0701   11.8763 C.ar    1  UNL1       -0.0270
     16 C           5.8296   13.7043   11.7693 C.ar    1  UNL1       -0.0541
     17 H           6.7154   13.1033   11.6179 H       1  UNL1        0.0623
     18 C           5.9484   15.0840   11.8433 C.ar    1  UNL1       -0.0498
     19 C           4.7955   15.8359   12.0132 C.ar    1  UNL1       -0.0541
     20 H           4.8651   16.9136   12.0557 H       1  UNL1        0.0623
     21 C           3.5506   15.2409   12.1290 C.ar    1  UNL1       -0.0270
     22 C           4.5051   11.5811   11.7517 C.3     1  UNL1       -0.0379
     23 H           5.4783   11.1203   11.8971 H       1  UNL1        0.0278
     24 H           4.1390   11.3033   10.7630 H       1  UNL1        0.0278
     25 H           3.8057   11.1915   12.4897 H       1  UNL1        0.0278
     26 C           7.2920   15.7423   11.7562 C.3     1  UNL1       -0.0397
     27 H           7.2019   16.7645   11.3963 H       1  UNL1        0.0278
     28 H           7.9525   15.1899   11.0912 H       1  UNL1        0.0278
     29 H           7.7549   15.7709   12.7431 H       1  UNL1        0.0278
     30 C           2.3158   16.0779   12.2741 C.3     1  UNL1       -0.0379
     31 H           1.6413   15.6356   13.0129 H       1  UNL1        0.0278
     32 H           1.7775   16.1294   11.3261 H       1  UNL1        0.0278
     33 H           2.5670   17.0878   12.5867 H       1  UNL1        0.0278
     34 C           1.8805   12.9531    9.8315 C.3     1  UNL1       -0.0228
     35 H           2.8651   13.4103    9.7654 H       1  UNL1        0.0291
     36 H           1.1790   13.5534    9.2522 H       1  UNL1        0.0291
     37 H           1.9212   11.9597    9.3835 H       1  UNL1        0.0291
     38 C          -2.7043   12.5404   15.6473 C.3     1  UNL1       -0.0340
     39 H          -2.5669   12.9134   16.6595 H       1  UNL1        0.0255
     40 H          -3.0467   11.5065   15.6991 H       1  UNL1        0.0255
     41 H          -3.4823   13.1286   15.1609 H       1  UNL1        0.0255
     42 C          -0.1854   13.4252   16.7569 C.ar    1  UNL1        0.0547
     43 C          -0.1196   14.7952   17.0597 C.ar    1  UNL1       -0.0274
     44 C           0.0628   15.1930   18.3713 C.ar    1  UNL1       -0.0541
     45 H           0.1188   16.2486   18.5964 H       1  UNL1        0.0623
     46 C           0.1733   14.2695   19.4024 C.ar    1  UNL1       -0.0498
     47 C           0.0660   12.9245   19.0920 C.ar    1  UNL1       -0.0541
     48 H           0.1224   12.1885   19.8821 H       1  UNL1        0.0623
     49 C          -0.1260   12.4821   17.7902 C.ar    1  UNL1       -0.0274
     50 C          -0.2702   15.8085   15.9660 C.3     1  UNL1       -0.0379
     51 H           0.4280   15.5933   15.1540 H       1  UNL1        0.0278
     52 H          -0.0749   16.8106   16.3374 H       1  UNL1        0.0278
     53 H          -1.2792   15.7770   15.5520 H       1  UNL1        0.0278
     54 C           0.4073   14.7240   20.8112 C.3     1  UNL1       -0.0397
     55 H          -0.1431   15.6393   21.0190 H       1  UNL1        0.0278
     56 H           1.4673   14.9289   20.9637 H       1  UNL1        0.0278
     57 H           0.1035   13.9596   21.5225 H       1  UNL1        0.0278
     58 C          -0.2857   11.0086   17.5500 C.3     1  UNL1       -0.0379
     59 H          -0.4789   10.7866   16.5047 H       1  UNL1        0.0278
     60 H          -1.1177   10.6279   18.1425 H       1  UNL1        0.0278
     61 H           0.6104   10.4717   17.8574 H       1  UNL1        0.0278
@<TRIPOS>BOND
     1    36    34    1
     2    37    34    1
     3     7     6    1
     4    35    34    1
     5    34     4    1
     6     9     8    1
     7     6     8    2
     8     6     5    1
     9    24    22    1
    10    28    26    1
    11     4     5    2
    12     4     1    1
    13     8    10    1
    14    32    30    1
    15    27    26    1
    16     5     2    1
    17    17    16    1
    18    22    15    1
    19    22    23    1
    20    22    25    1
    21    26    18    1
    22    26    29    1
    23    16    18   ar
    24    16    15   ar
    25    18    19   ar
    26    15    14   ar
    27    19    20    1
    28    19    21   ar
    29    14    21   ar
    30    14     1    1
    31    21    30    1
    32    30    33    1
    33    30    31    1
    34    10    11    1
    35    10    12    2
    36     2    12    1
    37    12    13    1
    38    13     3    1
    39    13    38    1
    40    51    50    1
    41    41    38    1
    42     3    42    1
    43    53    50    1
    44    38    40    1
    45    38    39    1
    46    50    52    1
    47    50    43    1
    48    59    58    1
    49    42    43   ar
    50    42    49   ar
    51    43    44   ar
    52    58    49    1
    53    58    61    1
    54    58    60    1
    55    49    47   ar
    56    44    45    1
    57    44    46   ar
    58    47    46   ar
    59    47    48    1
    60    46    54    1
    61    54    56    1
    62    54    55    1
    63    54    57    1
