@<TRIPOS>MOLECULE
1,2,3
 61 63 0 0 0
SMALL
GASTEIGER

@<TRIPOS>ATOM
      1 N          13.5199    8.0120    8.6733 N.pl3   1  UNL1       -0.2171
      2 N          13.8775    6.3048    6.8590 N.pl3   1  UNL1       -0.2154
      3 N          14.6059    7.5660    4.8192 N.pl3   1  UNL1       -0.2353
      4 C          13.3191    6.7823    9.0549 C.2     1  UNL1        0.0510
      5 C          13.5584    5.7698    8.0566 C.2     1  UNL1        0.0720
      6 C          13.5031    4.3860    8.2291 C.2     1  UNL1       -0.0371
      7 H          13.2476    3.9681    9.1891 H       1  UNL1        0.0637
      8 C          13.8045    3.5626    7.1542 C.2     1  UNL1       -0.0583
      9 H          13.7695    2.4901    7.2686 H       1  UNL1        0.0619
     10 C          14.1758    4.1202    5.9412 C.2     1  UNL1       -0.0405
     11 H          14.4473    3.4957    5.1057 H       1  UNL1        0.0634
     12 C          14.2138    5.5110    5.8186 C.2     1  UNL1        0.0586
     13 C          14.5873    6.2728    4.6562 C.3     1  UNL1        0.1181
     14 C          13.2482    9.0818    9.5570 C.ar    1  UNL1        0.0592
     15 C          14.2393    9.5467   10.4313 C.ar    1  UNL1       -0.0270
     16 C          13.9698   10.6518   11.2232 C.ar    1  UNL1       -0.0541
     17 H          14.7400   11.0157   11.8881 H       1  UNL1        0.0623
     18 C          12.7394   11.2907   11.1926 C.ar    1  UNL1       -0.0498
     19 C          11.7501   10.7724   10.3719 C.ar    1  UNL1       -0.0541
     20 H          10.7713   11.2304   10.3649 H       1  UNL1        0.0623
     21 C          11.9767    9.6696    9.5630 C.ar    1  UNL1       -0.0270
     22 C          15.5498    8.8327   10.5509 C.3     1  UNL1       -0.0379
     23 H          15.4223    7.9072   11.1148 H       1  UNL1        0.0278
     24 H          16.2781    9.4479   11.0733 H       1  UNL1        0.0278
     25 H          15.9448    8.5655    9.5719 H       1  UNL1        0.0278
     26 C          12.4889   12.5090   12.0281 C.3     1  UNL1       -0.0397
     27 H          12.8209   13.3984   11.4917 H       1  UNL1        0.0278
     28 H          13.0388   12.4575   12.9651 H       1  UNL1        0.0278
     29 H          11.4294   12.6214   12.2456 H       1  UNL1        0.0278
     30 C          10.8626    9.0926    8.7435 C.3     1  UNL1       -0.0379
     31 H          11.2143    8.8406    7.7432 H       1  UNL1        0.0278
     32 H          10.0378    9.7963    8.6673 H       1  UNL1        0.0278
     33 H          10.4907    8.1766    9.2047 H       1  UNL1        0.0278
     34 C          12.8485    6.3951   10.4249 C.3     1  UNL1       -0.0228
     35 H          12.6447    7.2769   11.0275 H       1  UNL1        0.0291
     36 H          13.6092    5.7948   10.9239 H       1  UNL1        0.0291
     37 H          11.9418    5.7951   10.3524 H       1  UNL1        0.0291
     38 C          14.9089    5.5897    3.3615 C.3     1  UNL1       -0.0340
     39 H          14.0745    4.9638    3.0458 H       1  UNL1        0.0255
     40 H          15.7816    4.9492    3.4887 H       1  UNL1        0.0255
     41 H          15.1201    6.3213    2.5850 H       1  UNL1        0.0255
     42 C          14.8143    8.4314    3.7201 C.ar    1  UNL1        0.0547
     43 C          16.0874    8.9447    3.4383 C.ar    1  UNL1       -0.0274
     44 C          16.2235    9.8791    2.4253 C.ar    1  UNL1       -0.0541
     45 H          17.2023   10.2875    2.2196 H       1  UNL1        0.0623
     46 C          15.1414   10.3011    1.6669 C.ar    1  UNL1       -0.0498
     47 C          13.9007    9.7435    1.9278 C.ar    1  UNL1       -0.0541
     48 H          13.0485   10.0359    1.3300 H       1  UNL1        0.0623
     49 C          13.7173    8.8078    2.9347 C.ar    1  UNL1       -0.0274
     50 C          17.2988    8.4524    4.1663 C.3     1  UNL1       -0.0379
     51 H          17.0830    8.2397    5.2101 H       1  UNL1        0.0278
     52 H          18.0979    9.1871    4.1157 H       1  UNL1        0.0278
     53 H          17.6574    7.5286    3.7078 H       1  UNL1        0.0278
     54 C          15.3327   11.3101    0.5767 C.3     1  UNL1       -0.0397
     55 H          14.3798   11.6005    0.1415 H       1  UNL1        0.0278
     56 H          15.9623   10.8997   -0.2125 H       1  UNL1        0.0278
     57 H          15.8257   12.1960    0.9723 H       1  UNL1        0.0278
     58 C          12.3678    8.1921    3.1519 C.3     1  UNL1       -0.0379
     59 H          11.5936    8.7916    2.6801 H       1  UNL1        0.0278
     60 H          12.1515    8.1049    4.2165 H       1  UNL1        0.0278
     61 H          12.3343    7.1904    2.7214 H       1  UNL1        0.0278
@<TRIPOS>BOND
     1    56    54    1
     2    55    54    1
     3    54    57    1
     4    54    46    1
     5    48    47    1
     6    46    47   ar
     7    46    44   ar
     8    47    49   ar
     9    45    44    1
    10    44    43   ar
    11    41    38    1
    12    59    58    1
    13    61    58    1
    14    49    58    1
    15    49    42   ar
    16    39    38    1
    17    58    60    1
    18    38    40    1
    19    38    13    1
    20    43    42   ar
    21    43    50    1
    22    53    50    1
    23    42     3    1
    24    52    50    1
    25    50    51    1
    26    13     3    1
    27    13    12    1
    28    11    10    1
    29    12    10    2
    30    12     2    1
    31    10     8    1
    32     2     5    1
    33     8     9    1
    34     8     6    2
    35    31    30    1
    36     5     6    1
    37     5     4    2
    38     6     7    1
    39    32    30    1
    40     1     4    1
    41     1    14    1
    42    30    33    1
    43    30    21    1
    44     4    34    1
    45    14    21   ar
    46    14    15   ar
    47    21    19   ar
    48    25    22    1
    49    37    34    1
    50    20    19    1
    51    19    18   ar
    52    34    36    1
    53    34    35    1
    54    15    22    1
    55    15    16   ar
    56    22    24    1
    57    22    23    1
    58    18    16   ar
    59    18    26    1
    60    16    17    1
    61    27    26    1
    62    26    29    1
    63    26    28    1
