@<TRIPOS>MOLECULE
3,4,5
 43 42 0 0 0
SMALL
GASTEIGER

@<TRIPOS>ATOM
      1 SI          0.6847    2.8190    5.1275 Si      1  UNL1        0.0000
      2 SI          1.4983    0.6550    3.1016 Si      1  UNL1        0.0000
      3 N           1.2296    2.2766    3.5934 N.3     1  UNL1        0.0000
      4 N           1.3516    5.1374    3.6184 N.3     1  UNL1        0.0000
      5 N           2.3236    2.3041    0.9324 N.3     1  UNL1        0.0000
      6 C           0.7349    4.7427    4.8997 C.3     1  UNL1        0.0000
      7 C           2.1015    0.8868    1.2759 C.3     1  UNL1        0.0000
      8 C          -1.0856    2.2986    5.6018 C.3     1  UNL1        0.0000
      9 C           1.8748    2.3569    6.5447 C.3     1  UNL1        0.0000
     10 C          -0.0356   -0.4745    3.1021 C.3     1  UNL1        0.0000
     11 C           2.8971   -0.1921    4.0849 C.3     1  UNL1        0.0000
     12 C           2.8063    5.0869    3.7531 C.3     1  UNL1        0.0000
     13 C           0.9619    6.5185    3.3007 C.3     1  UNL1        0.0000
     14 C           3.6287    2.7230    1.4404 C.3     1  UNL1        0.0000
     15 C           2.3249    2.4495   -0.5304 C.3     1  UNL1        0.0000
     16 H          -0.2938    5.1014    4.8992 H       1  UNL1        0.0000
     17 H           1.2472    5.2577    5.7224 H       1  UNL1        0.0000
     18 H           3.0089    0.3123    1.0498 H       1  UNL1        0.0000
     19 H           1.3187    0.5046    0.6217 H       1  UNL1        0.0000
     20 H          -1.4182    2.7944    6.5084 H       1  UNL1        0.0000
     21 H          -1.7896    2.5461    4.8122 H       1  UNL1        0.0000
     22 H          -1.1417    1.2286    5.7738 H       1  UNL1        0.0000
     23 H           1.7826    1.3032    6.7765 H       1  UNL1        0.0000
     24 H           2.9149    2.5468    6.3033 H       1  UNL1        0.0000
     25 H           1.6357    2.9105    7.4457 H       1  UNL1        0.0000
     26 H          -0.3772   -0.6627    4.1147 H       1  UNL1        0.0000
     27 H          -0.8548   -0.0192    2.5529 H       1  UNL1        0.0000
     28 H           0.1763   -1.4353    2.6437 H       1  UNL1        0.0000
     29 H           2.5547   -0.4324    5.0836 H       1  UNL1        0.0000
     30 H           3.1935   -1.1207    3.6102 H       1  UNL1        0.0000
     31 H           3.7820    0.4271    4.1852 H       1  UNL1        0.0000
     32 H           3.1090    4.0845    4.0537 H       1  UNL1        0.0000
     33 H           3.2722    5.3556    2.8032 H       1  UNL1        0.0000
     34 H           3.1516    5.7949    4.5193 H       1  UNL1        0.0000
     35 H           1.2161    7.1927    4.1277 H       1  UNL1        0.0000
     36 H           1.4735    6.8538    2.3986 H       1  UNL1        0.0000
     37 H          -0.1135    6.5603    3.1242 H       1  UNL1        0.0000
     38 H           3.6721    2.5532    2.5155 H       1  UNL1        0.0000
     39 H           4.4352    2.1451    0.9678 H       1  UNL1        0.0000
     40 H           3.7862    3.7798    1.2155 H       1  UNL1        0.0000
     41 H           3.0557    1.7703   -0.9860 H       1  UNL1        0.0000
     42 H           1.3323    2.2179   -0.9183 H       1  UNL1        0.0000
     43 H           2.5735    3.4746   -0.8050 H       1  UNL1        0.0000
@<TRIPOS>BOND
     1    41    15    1
     2    42    15    1
     3    43    15    1
     4    15     5    1
     5    19     7    1
     6     5     7    1
     7     5    14    1
     8    39    14    1
     9    18     7    1
    10    40    14    1
    11     7     2    1
    12    14    38    1
    13    36    13    1
    14    27    10    1
    15    28    10    1
    16    33    12    1
    17     2    10    1
    18     2     3    1
    19     2    11    1
    20    10    26    1
    21    37    13    1
    22    13     4    1
    23    13    35    1
    24     3     1    1
    25    30    11    1
    26     4    12    1
    27     4     6    1
    28    12    32    1
    29    12    34    1
    30    11    31    1
    31    11    29    1
    32    21     8    1
    33    16     6    1
    34     6     1    1
    35     6    17    1
    36     1     8    1
    37     1     9    1
    38     8    22    1
    39     8    20    1
    40    24     9    1
    41     9    23    1
    42     9    25    1
