@<TRIPOS>MOLECULE
3,4,5
 43 42 0 0 0
SMALL
GASTEIGER

@<TRIPOS>ATOM
      1 SI          1.7014    0.7086    3.2351 Si      1  UNL1        0.0000
      2 SI          0.5304    2.8057    5.1228 Si      1  UNL1        0.0000
      3 N           1.3769    2.3201    3.7128 N.3     1  UNL1        0.0000
      4 N           2.1232    2.2987    0.9211 N.3     1  UNL1        0.0000
      5 N           1.4357    5.1052    3.7399 N.3     1  UNL1        0.0000
      6 C           2.0379    0.8878    1.3387 C.3     1  UNL1        0.0000
      7 C           0.7582    4.7349    4.9998 C.3     1  UNL1        0.0000
      8 C           3.2786    0.0325    4.0848 C.3     1  UNL1        0.0000
      9 C           0.2944   -0.5584    3.4656 C.3     1  UNL1        0.0000
     10 C           1.2955    2.1911    6.7595 C.3     1  UNL1        0.0000
     11 C          -1.3260    2.3476    5.0571 C.3     1  UNL1        0.0000
     12 C           3.4589    2.8121    1.2287 C.3     1  UNL1        0.0000
     13 C           1.9167    2.3701   -0.5335 C.3     1  UNL1        0.0000
     14 C           2.8809    4.9399    3.9022 C.3     1  UNL1        0.0000
     15 C           1.1707    6.5199    3.4416 C.3     1  UNL1        0.0000
     16 H           2.9398    0.3543    1.0075 H       1  UNL1        0.0000
     17 H           1.1948    0.4349    0.8160 H       1  UNL1        0.0000
     18 H          -0.2311    5.1952    4.9968 H       1  UNL1        0.0000
     19 H           1.3064    5.1656    5.8495 H       1  UNL1        0.0000
     20 H           3.1088   -0.0723    5.1495 H       1  UNL1        0.0000
     21 H           3.5377   -0.9461    3.6971 H       1  UNL1        0.0000
     22 H           4.1413    0.6781    3.9552 H       1  UNL1        0.0000
     23 H           0.0591   -0.6848    4.5171 H       1  UNL1        0.0000
     24 H          -0.6067   -0.2254    2.9587 H       1  UNL1        0.0000
     25 H           0.5584   -1.5332    3.0681 H       1  UNL1        0.0000
     26 H           1.1910    1.1156    6.8351 H       1  UNL1        0.0000
     27 H           2.3526    2.4224    6.8269 H       1  UNL1        0.0000
     28 H           0.8015    2.6318    7.6178 H       1  UNL1        0.0000
     29 H          -1.9582    3.1051    5.5109 H       1  UNL1        0.0000
     30 H          -1.6473    2.2335    4.0208 H       1  UNL1        0.0000
     31 H          -1.5204    1.4092    5.5672 H       1  UNL1        0.0000
     32 H           3.6636    2.6796    2.2922 H       1  UNL1        0.0000
     33 H           4.2254    2.2645    0.6590 H       1  UNL1        0.0000
     34 H           3.5153    3.8708    0.9564 H       1  UNL1        0.0000
     35 H           2.0932    3.3856   -0.8917 H       1  UNL1        0.0000
     36 H           2.6022    1.6869   -1.0536 H       1  UNL1        0.0000
     37 H           0.8871    2.0890   -0.7685 H       1  UNL1        0.0000
     38 H           3.1008    3.9076    4.1813 H       1  UNL1        0.0000
     39 H           3.3873    5.1993    2.9688 H       1  UNL1        0.0000
     40 H           3.2593    5.6024    4.6955 H       1  UNL1        0.0000
     41 H           1.4681    7.1564    4.2861 H       1  UNL1        0.0000
     42 H           1.7275    6.8245    2.5537 H       1  UNL1        0.0000
     43 H           0.1058    6.6586    3.2458 H       1  UNL1        0.0000
@<TRIPOS>BOND
     1    36    13    1
     2    35    13    1
     3    37    13    1
     4    13     4    1
     5    33    12    1
     6    17     6    1
     7     4    12    1
     8     4     6    1
     9    34    12    1
    10    16     6    1
    11    12    32    1
    12     6     1    1
    13    42    15    1
    14    24     9    1
    15    39    14    1
    16    25     9    1
    17     1     9    1
    18     1     3    1
    19     1     8    1
    20    43    15    1
    21    15     5    1
    22    15    41    1
    23     9    23    1
    24    21     8    1
    25     3     2    1
    26     5    14    1
    27     5     7    1
    28    14    38    1
    29    14    40    1
    30    22     8    1
    31    30    11    1
    32     8    20    1
    33    18     7    1
    34     7     2    1
    35     7    19    1
    36    11     2    1
    37    11    29    1
    38    11    31    1
    39     2    10    1
    40    10    27    1
    41    10    26    1
    42    10    28    1
