@<TRIPOS>MOLECULE
3,4,5
 43 42 0 0 0
SMALL
GASTEIGER

@<TRIPOS>ATOM
      1 SI          2.5256    4.3202    2.3361 Si      1  UNL1        0.0000
      2 SI          5.0246    2.7471    1.5626 Si      1  UNL1        0.0000
      3 N           4.1345    3.7771    2.6157 N.3     1  UNL1        0.0000
      4 N           2.9784    4.3844    5.1083 N.3     1  UNL1        0.0000
      5 N           6.8728    4.2567    3.0444 N.3     1  UNL1        0.0000
      6 C           2.0588    4.9485    4.1037 C.3     1  UNL1        0.0000
      7 C           6.8141    3.0229    2.2401 C.3     1  UNL1        0.0000
      8 C           2.3864    5.7713    1.1020 C.3     1  UNL1        0.0000
      9 C           1.3287    2.9363    1.7833 C.3     1  UNL1        0.0000
     10 C           4.5846    0.8941    1.7043 C.3     1  UNL1        0.0000
     11 C           4.9223    3.2511   -0.2785 C.3     1  UNL1        0.0000
     12 C           2.5208    3.0313    5.4366 C.3     1  UNL1        0.0000
     13 C           2.9109    5.1982    6.3296 C.3     1  UNL1        0.0000
     14 C           7.0088    5.3919    2.1275 C.3     1  UNL1        0.0000
     15 C           8.0662    4.2153    3.9001 C.3     1  UNL1        0.0000
     16 H           2.1616    6.0342    4.1128 H       1  UNL1        0.0000
     17 H           1.0231    4.7240    4.3915 H       1  UNL1        0.0000
     18 H           7.0636    2.1787    2.8840 H       1  UNL1        0.0000
     19 H           7.5811    3.0628    1.4553 H       1  UNL1        0.0000
     20 H           3.0542    6.5818    1.3780 H       1  UNL1        0.0000
     21 H           2.6418    5.4516    0.0974 H       1  UNL1        0.0000
     22 H           1.3761    6.1662    1.0738 H       1  UNL1        0.0000
     23 H           0.3041    3.2911    1.7658 H       1  UNL1        0.0000
     24 H           1.5789    2.6165    0.7785 H       1  UNL1        0.0000
     25 H           1.3680    2.0610    2.4230 H       1  UNL1        0.0000
     26 H           3.5836    0.7035    1.3325 H       1  UNL1        0.0000
     27 H           5.2711    0.2844    1.1256 H       1  UNL1        0.0000
     28 H           4.6304    0.5602    2.7365 H       1  UNL1        0.0000
     29 H           5.1461    4.2993   -0.4455 H       1  UNL1        0.0000
     30 H           5.6063    2.6639   -0.8812 H       1  UNL1        0.0000
     31 H           3.9215    3.0685   -0.6518 H       1  UNL1        0.0000
     32 H           1.4805    3.0579    5.7924 H       1  UNL1        0.0000
     33 H           2.5788    2.3964    4.5505 H       1  UNL1        0.0000
     34 H           3.1477    2.5987    6.2198 H       1  UNL1        0.0000
     35 H           3.5224    4.7495    7.1163 H       1  UNL1        0.0000
     36 H           3.2879    6.2041    6.1274 H       1  UNL1        0.0000
     37 H           1.8728    5.2700    6.6834 H       1  UNL1        0.0000
     38 H           7.1131    6.3229    2.6894 H       1  UNL1        0.0000
     39 H           7.8969    5.2625    1.4918 H       1  UNL1        0.0000
     40 H           6.1232    5.4628    1.4932 H       1  UNL1        0.0000
     41 H           7.9788    3.3984    4.6209 H       1  UNL1        0.0000
     42 H           8.9675    4.0594    3.2906 H       1  UNL1        0.0000
     43 H           8.1690    5.1544    4.4496 H       1  UNL1        0.0000
@<TRIPOS>BOND
     1    30    11    1
     2    31    11    1
     3    29    11    1
     4    11     2    1
     5    21     8    1
     6    24     9    1
     7    22     8    1
     8     8    20    1
     9     8     1    1
    10    27    10    1
    11    26    10    1
    12    19     7    1
    13    39    14    1
    14    40    14    1
    15     2    10    1
    16     2     7    1
    17     2     3    1
    18    10    28    1
    19    23     9    1
    20     9     1    1
    21     9    25    1
    22    14    38    1
    23    14     5    1
    24     7    18    1
    25     7     5    1
    26     1     3    1
    27     1     6    1
    28     5    15    1
    29    42    15    1
    30    15    43    1
    31    15    41    1
    32     6    16    1
    33     6    17    1
    34     6     4    1
    35    33    12    1
    36     4    12    1
    37     4    13    1
    38    12    32    1
    39    12    34    1
    40    36    13    1
    41    13    37    1
    42    13    35    1
