@<TRIPOS>MOLECULE
3,13,23
 71 73 0 0 0
SMALL
GASTEIGER

@<TRIPOS>ATOM
      1 B           1.5276    1.7233   12.3056 B       1  UNL1        0.0000
      2 N           0.4768    2.2419   11.2939 N.3     1  UNL1        0.0000
      3 N          -0.1799    1.3996   10.4557 N.pl3   1  UNL1        0.0000
      4 C           0.9588    4.6973   11.5119 C.3     1  UNL1        0.0000
      5 C           0.3886    3.5056   10.8313 C.3     1  UNL1        0.0000
      6 C          -0.3370    3.4761    9.6573 C.2     1  UNL1        0.0000
      7 C          -0.6645    2.1322    9.4511 C.2     1  UNL1        0.0000
      8 C          -1.4272    1.5714    8.2806 C.3     1  UNL1        0.0000
      9 C          -1.2523    0.0552    8.1905 C.3     1  UNL1        0.0000
     10 C          -0.9058    2.2103    6.9860 C.3     1  UNL1        0.0000
     11 C          -2.9127    1.9074    8.4574 C.3     1  UNL1        0.0000
     12 N           2.2455    0.5237   11.6623 N.3     1  UNL1        0.0000
     13 N           1.6360   -0.6562   11.4022 N.pl3   1  UNL1        0.0000
     14 C           4.5215    1.5758   11.4887 C.3     1  UNL1        0.0000
     15 C           3.5522    0.4567   11.3482 C.3     1  UNL1        0.0000
     16 C           3.8033   -0.8151   10.8747 C.2     1  UNL1        0.0000
     17 C           2.5779   -1.4821   10.9295 C.2     1  UNL1        0.0000
     18 C           2.3116   -2.9063   10.5220 C.3     1  UNL1        0.0000
     19 C           1.5957   -3.6256   11.6694 C.3     1  UNL1        0.0000
     20 C           3.6192   -3.6435   10.2164 C.3     1  UNL1        0.0000
     21 C           1.4412   -2.8923    9.2600 C.3     1  UNL1        0.0000
     22 N           0.9553    1.2527   13.6578 N.3     1  UNL1        0.0000
     23 N           0.1782    0.1506   13.7986 N.pl3   1  UNL1        0.0000
     24 C           2.1541    2.9260   15.1074 C.3     1  UNL1        0.0000
     25 C           1.3128    1.7238   14.8681 C.3     1  UNL1        0.0000
     26 C           0.7477    0.9022   15.8213 C.2     1  UNL1        0.0000
     27 C           0.0486   -0.0765   15.1092 C.2     1  UNL1        0.0000
     28 C          -0.7463   -1.1947   15.7315 C.3     1  UNL1        0.0000
     29 C           0.0432   -1.7828   16.9099 C.3     1  UNL1        0.0000
     30 C          -1.0314   -2.3137   14.7306 C.3     1  UNL1        0.0000
     31 C          -2.0708   -0.6120   16.2438 C.3     1  UNL1        0.0000
     32 H           2.3069    2.5846   12.5056 H       1  UNL1        0.0000
     33 H           0.5988    4.7586   12.5371 H       1  UNL1        0.0000
     34 H           0.6546    5.5952   10.9807 H       1  UNL1        0.0000
     35 H           2.0467    4.6551   11.5350 H       1  UNL1        0.0000
     36 H          -0.5879    4.3167    9.0431 H       1  UNL1        0.0000
     37 H          -1.6747   -0.4266    9.0764 H       1  UNL1        0.0000
     38 H          -0.1968   -0.1993    8.1105 H       1  UNL1        0.0000
     39 H          -1.7663   -0.3256    7.3102 H       1  UNL1        0.0000
     40 H           0.1616    2.0315    6.8753 H       1  UNL1        0.0000
     41 H          -1.0774    3.2829    6.9806 H       1  UNL1        0.0000
     42 H          -1.4189    1.7807    6.1285 H       1  UNL1        0.0000
     43 H          -3.2765    1.4932    9.3947 H       1  UNL1        0.0000
     44 H          -3.4933    1.4904    7.6376 H       1  UNL1        0.0000
     45 H          -3.0623    2.9841    8.4767 H       1  UNL1        0.0000
     46 H           5.4902    1.2594   11.1105 H       1  UNL1        0.0000
     47 H           4.6328    1.8666   12.5319 H       1  UNL1        0.0000
     48 H           4.1914    2.4466   10.9254 H       1  UNL1        0.0000
     49 H           4.7473   -1.1926   10.5416 H       1  UNL1        0.0000
     50 H           0.7130   -3.0587   11.9671 H       1  UNL1        0.0000
     51 H           2.2600   -3.7122   12.5277 H       1  UNL1        0.0000
     52 H           1.2929   -4.6248   11.3638 H       1  UNL1        0.0000
     53 H           4.2822   -3.6317   11.0785 H       1  UNL1        0.0000
     54 H           4.1350   -3.1923    9.3724 H       1  UNL1        0.0000
     55 H           3.4020   -4.6798    9.9660 H       1  UNL1        0.0000
     56 H           0.5504   -2.2890    9.4315 H       1  UNL1        0.0000
     57 H           1.1427   -3.9030    8.9904 H       1  UNL1        0.0000
     58 H           1.9955   -2.4617    8.4278 H       1  UNL1        0.0000
     59 H           1.7383    3.7970   14.6060 H       1  UNL1        0.0000
     60 H           3.1678    2.7737   14.7403 H       1  UNL1        0.0000
     61 H           2.1973    3.1239   16.1753 H       1  UNL1        0.0000
     62 H           0.8335    1.0097   16.8830 H       1  UNL1        0.0000
     63 H           1.0208   -2.1269   16.5794 H       1  UNL1        0.0000
     64 H          -0.4962   -2.6282   17.3313 H       1  UNL1        0.0000
     65 H           0.1848   -1.0477   17.6967 H       1  UNL1        0.0000
     66 H          -0.0984   -2.7171   14.3393 H       1  UNL1        0.0000
     67 H          -1.6409   -1.9436   13.9025 H       1  UNL1        0.0000
     68 H          -1.5727   -3.1196   15.2226 H       1  UNL1        0.0000
     69 H          -1.8864    0.1607   16.9868 H       1  UNL1        0.0000
     70 H          -2.6742   -1.3937   16.7000 H       1  UNL1        0.0000
     71 H          -2.6296   -0.1703   15.4221 H       1  UNL1        0.0000
@<TRIPOS>BOND
     1    42    10    1
     2    40    10    1
     3    41    10    1
     4    10     8    1
     5    39     9    1
     6    44    11    1
     7    38     9    1
     8     9     8    1
     9     9    37    1
    10     8    11    1
    11     8     7    1
    12    58    21    1
    13    11    45    1
    14    11    43    1
    15    57    21    1
    16    36     6    1
    17    21    56    1
    18    21    18    1
    19    54    20    1
    20     7     6    2
    21     7     3    1
    22     6     5    1
    23    55    20    1
    24    20    18    1
    25    20    53    1
    26     3     2    1
    27    18    17    1
    28    18    19    1
    29    49    16    1
    30     5     2    1
    31     5     4    1
    32    16    17    2
    33    16    15    1
    34    48    14    1
    35    17    13    1
    36    34     4    1
    37    46    14    1
    38     2     1    1
    39    15    14    1
    40    15    12    1
    41    52    19    1
    42    13    12    1
    43    14    47    1
    44     4    35    1
    45     4    33    1
    46    12     1    1
    47    19    50    1
    48    19    51    1
    49     1    32    1
    50     1    22    1
    51    22    23    1
    52    22    25    1
    53    23    27    1
    54    67    30    1
    55    66    30    1
    56    59    24    1
    57    30    68    1
    58    30    28    1
    59    60    24    1
    60    25    24    1
    61    25    26    1
    62    24    61    1
    63    27    28    1
    64    27    26    2
    65    71    31    1
    66    28    31    1
    67    28    29    1
    68    26    62    1
    69    31    70    1
    70    31    69    1
    71    63    29    1
    72    29    64    1
    73    29    65    1
