@<TRIPOS>MOLECULE
1,2,3
 47 48 0 0 0
SMALL
GASTEIGER

@<TRIPOS>ATOM
      1 N          -1.6964    7.9082    3.2175 N.3     1  UNL1       -0.3023
      2 N          -0.4076    8.0409    5.5398 N.pl3   1  UNL1       -0.2494
      3 N           0.5940    6.8056    2.2210 N.pl3   1  UNL1       -0.2494
      4 F           2.9268   11.5310    6.7715 F       1  UNL1       -0.1659
      5 F           4.0963   10.0102    7.7381 F       1  UNL1       -0.1659
      6 F           3.0837   11.4958    8.9134 F       1  UNL1       -0.1659
      7 F           5.4213    8.0124    2.1890 F       1  UNL1       -0.1659
      8 F           6.4625    6.3301    1.3493 F       1  UNL1       -0.1659
      9 F           5.5014    7.7533    0.0590 F       1  UNL1       -0.1659
     10 C           5.3579    7.0817    1.2241 C.3     1  UNL1        0.4175
     11 C           4.0902    6.2800    1.2595 C.ar    1  UNL1        0.0566
     12 C           4.0952    4.9645    0.8097 C.ar    1  UNL1       -0.0500
     13 H           5.0096    4.5019    0.4754 H       1  UNL1        0.0623
     14 C           2.8973    4.2735    0.7986 C.ar    1  UNL1       -0.0594
     15 H           2.8740    3.2530    0.4468 H       1  UNL1        0.0618
     16 C           1.7286    4.8647    1.2400 C.ar    1  UNL1       -0.0391
     17 H           0.8223    4.2777    1.2268 H       1  UNL1        0.0637
     18 C           1.7190    6.1805    1.7308 C.ar    1  UNL1        0.0483
     19 C           2.9288    6.8891    1.6950 C.ar    1  UNL1       -0.0275
     20 H           2.9287    7.9270    1.9924 H       1  UNL1        0.0642
     21 C          -0.6544    6.3303    1.6515 C.3     1  UNL1        0.0441
     22 H          -0.9734    5.3681    2.0913 H       1  UNL1        0.0494
     23 H          -0.5391    6.1608    0.5702 H       1  UNL1        0.0494
     24 C          -1.7372    7.3849    1.8598 C.3     1  UNL1        0.0161
     25 H          -1.5372    8.2179    1.1797 H       1  UNL1        0.0442
     26 H          -2.7277    6.9637    1.6183 H       1  UNL1        0.0442
     27 C          -2.5956    9.0478    3.3436 C.3     1  UNL1       -0.0126
     28 H          -2.4294    9.7447    2.5278 H       1  UNL1        0.0391
     29 H          -2.4087    9.5693    4.2808 H       1  UNL1        0.0391
     30 H          -3.6468    8.7273    3.3138 H       1  UNL1        0.0391
     31 C          -2.0585    6.8944    4.1973 C.3     1  UNL1        0.0161
     32 H          -1.4824    5.9853    3.9988 H       1  UNL1        0.0442
     33 H          -3.1332    6.6474    4.1420 H       1  UNL1        0.0442
     34 C          -1.6962    7.3822    5.5958 C.3     1  UNL1        0.0441
     35 H          -2.4691    8.0658    5.9865 H       1  UNL1        0.0494
     36 H          -1.6745    6.5052    6.2634 H       1  UNL1        0.0494
     37 C           0.0801    8.4915    6.7337 C.ar    1  UNL1        0.0483
     38 C           1.1737    9.3762    6.7252 C.ar    1  UNL1       -0.0275
     39 H           1.5484    9.7264    5.7729 H       1  UNL1        0.0642
     40 C           1.7438    9.8116    7.9054 C.ar    1  UNL1        0.0566
     41 C           2.9458   10.7058    7.8350 C.3     1  UNL1        0.4175
     42 C           1.2462    9.4219    9.1432 C.ar    1  UNL1       -0.0500
     43 H           1.7018    9.7700   10.0556 H       1  UNL1        0.0623
     44 C           0.1355    8.5974    9.1634 C.ar    1  UNL1       -0.0594
     45 H          -0.2854    8.2956   10.1108 H       1  UNL1        0.0618
     46 C          -0.4434    8.1441    7.9947 C.ar    1  UNL1       -0.0391
     47 H          -1.3025    7.4967    8.0779 H       1  UNL1        0.0637
@<TRIPOS>BOND
     1     9    10    1
     2    15    14    1
     3    13    12    1
     4    23    21    1
     5    14    12   ar
     6    14    16   ar
     7    12    11   ar
     8    25    24    1
     9    10    11    1
    10    10     8    1
    11    10     7    1
    12    17    16    1
    13    16    18   ar
    14    11    19   ar
    15    26    24    1
    16    21    24    1
    17    21    22    1
    18    21     3    1
    19    19    18   ar
    20    19    20    1
    21    18     3    1
    22    24     1    1
    23    28    27    1
    24     1    27    1
    25     1    31    1
    26    30    27    1
    27    27    29    1
    28    32    31    1
    29    33    31    1
    30    31    34    1
    31     2    34    1
    32     2    37    1
    33    34    35    1
    34    34    36    1
    35    39    38    1
    36    38    37   ar
    37    38    40   ar
    38    37    46   ar
    39     4    41    1
    40     5    41    1
    41    41    40    1
    42    41     6    1
    43    40    42   ar
    44    46    47    1
    45    46    44   ar
    46    42    44   ar
    47    42    43    1
    48    44    45    1
