@<TRIPOS>MOLECULE
1,2,3
 45 44 0 0 0
SMALL
GASTEIGER

@<TRIPOS>ATOM
      1 N           9.3197   16.1777   16.2396 N.3     1  UNL1        0.0000
      2 N           8.5987   16.1375   12.5939 N.3     1  UNL1        0.0000
      3 N           7.1323   15.8353   14.7501 N.3     1  UNL1        0.0000
      4 SI         10.7192   16.5625   17.1360 Si      1  UNL1        0.0000
      5 SI          8.8640   16.7678   11.0322 Si      1  UNL1        0.0000
      6 C           8.2943   15.3673   16.8534 C.3     1  UNL1        0.0000
      7 C           6.9388   15.6409   16.1829 C.3     1  UNL1        0.0000
      8 C           7.5281   14.5785   14.1177 C.3     1  UNL1        0.0000
      9 C           7.9649   14.8470   12.6720 C.3     1  UNL1        0.0000
     10 C           5.9307   16.3769   14.1244 C.3     1  UNL1        0.0000
     11 C          11.2866   18.3353   16.6834 C.3     1  UNL1        0.0000
     12 C          10.4434   16.4962   19.0369 C.3     1  UNL1        0.0000
     13 C          12.2050   15.3560   16.8484 C.3     1  UNL1        0.0000
     14 C          10.0861   15.6854   10.0024 C.3     1  UNL1        0.0000
     15 C           7.2595   16.8665    9.9715 C.3     1  UNL1        0.0000
     16 C           9.5826   18.5132   11.2241 C.3     1  UNL1        0.0000
     17 H           8.1848   15.5834   17.9263 H       1  UNL1        0.0000
     18 H           8.5329   14.2861   16.7906 H       1  UNL1        0.0000
     19 H           6.5273   16.5654   16.5959 H       1  UNL1        0.0000
     20 H           6.2294   14.8168   16.3791 H       1  UNL1        0.0000
     21 H           8.3745   14.1663   14.6763 H       1  UNL1        0.0000
     22 H           6.7001   13.8465   14.1500 H       1  UNL1        0.0000
     23 H           7.0831   14.7847   12.0097 H       1  UNL1        0.0000
     24 H           8.6388   14.0304   12.3467 H       1  UNL1        0.0000
     25 H           6.1532   16.6420   13.0890 H       1  UNL1        0.0000
     26 H           5.6266   17.2806   14.6563 H       1  UNL1        0.0000
     27 H           5.1066   15.6466   14.1550 H       1  UNL1        0.0000
     28 H          11.3579   18.9700   17.5610 H       1  UNL1        0.0000
     29 H          10.5721   18.7840   15.9938 H       1  UNL1        0.0000
     30 H          12.2642   18.3349   16.2100 H       1  UNL1        0.0000
     31 H          11.3111   16.8689   19.5712 H       1  UNL1        0.0000
     32 H           9.5907   17.0951   19.3412 H       1  UNL1        0.0000
     33 H          10.2689   15.4785   19.3727 H       1  UNL1        0.0000
     34 H          12.9291   15.4383   17.6526 H       1  UNL1        0.0000
     35 H          12.7293   15.5700   15.9205 H       1  UNL1        0.0000
     36 H          11.8812   14.3189   16.8130 H       1  UNL1        0.0000
     37 H          10.2645   16.1150    9.0222 H       1  UNL1        0.0000
     38 H          11.0496   15.5887   10.4977 H       1  UNL1        0.0000
     39 H           9.6935   14.6840    9.8499 H       1  UNL1        0.0000
     40 H           7.4591   17.3141    9.0035 H       1  UNL1        0.0000
     41 H           6.5024   17.4738   10.4597 H       1  UNL1        0.0000
     42 H           6.8330   15.8838    9.7894 H       1  UNL1        0.0000
     43 H           9.1494   19.1927   10.4994 H       1  UNL1        0.0000
     44 H           9.3504   18.8777   12.2224 H       1  UNL1        0.0000
     45 H          10.6587   18.5270   11.0861 H       1  UNL1        0.0000
@<TRIPOS>BOND
     1    40    15    1
     2    37    14    1
     3    42    15    1
     4    39    14    1
     5    15    41    1
     6    15     5    1
     7    14    38    1
     8    14     5    1
     9    43    16    1
    10     5    16    1
    11     5     2    1
    12    45    16    1
    13    16    44    1
    14    23     9    1
    15    24     9    1
    16     2     9    1
    17     9     8    1
    18    25    10    1
    19     8    22    1
    20     8    21    1
    21     8     3    1
    22    10    27    1
    23    10    26    1
    24    10     3    1
    25     3     7    1
    26    35    13    1
    27    29    11    1
    28     7    20    1
    29     7    19    1
    30     7     6    1
    31    30    11    1
    32     1     6    1
    33     1     4    1
    34    11     4    1
    35    11    28    1
    36    18     6    1
    37    36    13    1
    38    13     4    1
    39    13    34    1
    40     6    17    1
    41     4    12    1
    42    12    32    1
    43    12    33    1
    44    12    31    1
