@<TRIPOS>MOLECULE
1,2,3
 49 49 0 0 0
SMALL
GASTEIGER

@<TRIPOS>ATOM
      1 N          20.6317    6.5070   12.2085 N.3     1  UNL1        0.0000
      2 N          23.6369    5.1916   11.3480 N.3     1  UNL1        0.0000
      3 N          21.5828    5.8698    9.8706 N.pl3   1  UNL1        0.0000
      4 SI         19.1931    7.3537   11.8641 Si      1  UNL1        0.0000
      5 SI         24.9234    5.0170   10.2373 Si      1  UNL1        0.0000
      6 C          20.6191    5.1194   12.5352 C.3     1  UNL1        0.0000
      7 C          22.8677    4.0801   11.7952 C.3     1  UNL1        0.0000
      8 C          21.3227    4.1511   11.5119 C.3     1  UNL1        0.0000
      9 C          20.7559    2.7472   11.7532 C.3     1  UNL1        0.0000
     10 C          21.1091    4.6419   10.1153 C.3     1  UNL1        0.0000
     11 C          20.4805    3.9114    9.1061 C.2     1  UNL1        0.0000
     12 C          20.3446    4.4656    7.8472 C.2     1  UNL1        0.0000
     13 C          20.8432    5.7424    7.6141 C.2     1  UNL1        0.0000
     14 C          21.4575    6.4042    8.6586 C.2     1  UNL1        0.0000
     15 C          18.4141    7.0676   10.1234 C.3     1  UNL1        0.0000
     16 C          17.8053    6.8920   13.1129 C.3     1  UNL1        0.0000
     17 C          19.6315    9.1997   12.0796 C.3     1  UNL1        0.0000
     18 C          25.9519    6.6114   10.3995 C.3     1  UNL1        0.0000
     19 C          26.0054    3.4913   10.6928 C.3     1  UNL1        0.0000
     20 C          24.4173    4.7767    8.3963 C.3     1  UNL1        0.0000
     21 H          21.1212    4.9559   13.5128 H       1  UNL1        0.0000
     22 H          19.5879    4.7488   12.6510 H       1  UNL1        0.0000
     23 H          22.9705    3.9605   12.8948 H       1  UNL1        0.0000
     24 H          23.2227    3.1378   11.3462 H       1  UNL1        0.0000
     25 H          21.2342    2.0113   11.1090 H       1  UNL1        0.0000
     26 H          20.9397    2.4570   12.7866 H       1  UNL1        0.0000
     27 H          19.6808    2.7211   11.5834 H       1  UNL1        0.0000
     28 H          20.0990    2.9215    9.2975 H       1  UNL1        0.0000
     29 H          19.8576    3.9111    7.0586 H       1  UNL1        0.0000
     30 H          20.7515    6.2066    6.6451 H       1  UNL1        0.0000
     31 H          21.8742    7.3989    8.5523 H       1  UNL1        0.0000
     32 H          17.4329    7.5266   10.0474 H       1  UNL1        0.0000
     33 H          19.0365    7.4880    9.3376 H       1  UNL1        0.0000
     34 H          18.2918    6.0070    9.9123 H       1  UNL1        0.0000
     35 H          16.9892    7.6053   13.0720 H       1  UNL1        0.0000
     36 H          18.1744    6.8722   14.1343 H       1  UNL1        0.0000
     37 H          17.3876    5.9131   12.8965 H       1  UNL1        0.0000
     38 H          19.0317    9.8250   11.4278 H       1  UNL1        0.0000
     39 H          19.4676    9.5460   13.0958 H       1  UNL1        0.0000
     40 H          20.6813    9.3450   11.8329 H       1  UNL1        0.0000
     41 H          26.5614    6.7656    9.5172 H       1  UNL1        0.0000
     42 H          26.6137    6.6052   11.2607 H       1  UNL1        0.0000
     43 H          25.2643    7.4508   10.4873 H       1  UNL1        0.0000
     44 H          26.9432    3.5046   10.1485 H       1  UNL1        0.0000
     45 H          26.2404    3.4618   11.7528 H       1  UNL1        0.0000
     46 H          25.5016    2.5620   10.4440 H       1  UNL1        0.0000
     47 H          25.2644    4.4818    7.7850 H       1  UNL1        0.0000
     48 H          24.0299    5.7072    7.9897 H       1  UNL1        0.0000
     49 H          23.6487    4.0148    8.2803 H       1  UNL1        0.0000
@<TRIPOS>BOND
     1    30    13    1
     2    29    12    1
     3    13    12    1
     4    13    14    2
     5    47    20    1
     6    12    11    2
     7    48    20    1
     8    49    20    1
     9    20     5    1
    10    31    14    1
    11    14     3    1
    12    11    28    1
    13    11    10    1
    14    33    15    1
    15    41    18    1
    16     3    10    1
    17    34    15    1
    18    32    15    1
    19    10     8    1
    20    15     4    1
    21    44    19    1
    22     5    18    1
    23     5    19    1
    24     5     2    1
    25    18    43    1
    26    18    42    1
    27    46    19    1
    28    19    45    1
    29    25     9    1
    30    24     7    1
    31     2     7    1
    32    38    17    1
    33     8     9    1
    34     8     7    1
    35     8     6    1
    36    27     9    1
    37     9    26    1
    38     7    23    1
    39    40    17    1
    40     4    17    1
    41     4     1    1
    42     4    16    1
    43    17    39    1
    44     1     6    1
    45     6    22    1
    46     6    21    1
    47    37    16    1
    48    35    16    1
    49    16    36    1
