@<TRIPOS>MOLECULE
3,5,6
 66 66 0 0 0
SMALL
GASTEIGER

@<TRIPOS>ATOM
      1 SI          4.8518    2.5868    2.5774 Si      1  UNL1        0.0000
      2 SI          4.0155    2.2422    5.0570 Si      1  UNL1        0.0000
      3 N           4.6667    3.5886    4.0590 N.3     1  UNL1        0.0000
      4 N           4.2079    1.2982    3.5859 N.3     1  UNL1        0.0000
      5 N           5.3606    2.1931    6.0872 N.3     1  UNL1        0.0000
      6 N           6.5442    2.6820    2.5775 N.3     1  UNL1        0.0000
      7 C           3.7554    3.0296    1.0986 C.3     1  UNL1        0.0000
      8 C           2.2220    2.3994    5.6433 C.3     1  UNL1        0.0000
      9 C           4.5650    5.0216    4.2236 C.3     1  UNL1        0.0000
     10 C           3.1724    5.5365    3.8267 C.3     1  UNL1        0.0000
     11 C           5.6322    5.6996    3.3505 C.3     1  UNL1        0.0000
     12 C           4.8445    5.3747    5.6927 C.3     1  UNL1        0.0000
     13 C           3.7656   -0.0417    3.2505 C.3     1  UNL1        0.0000
     14 C           3.8768   -0.9351    4.4877 C.3     1  UNL1        0.0000
     15 C           2.3099   -0.0242    2.7593 C.3     1  UNL1        0.0000
     16 C           4.6681   -0.6120    2.1545 C.3     1  UNL1        0.0000
     17 C           5.5858    1.7184    7.4413 C.3     1  UNL1        0.0000
     18 C           6.9338    2.3068    7.9009 C.3     1  UNL1        0.0000
     19 C           4.4775    2.2046    8.3853 C.3     1  UNL1        0.0000
     20 C           5.6653    0.1856    7.4984 C.3     1  UNL1        0.0000
     21 C           7.5695    2.5389    1.5587 C.3     1  UNL1        0.0000
     22 C           8.8733    3.1021    2.1566 C.3     1  UNL1        0.0000
     23 C           7.2081    3.3394    0.2997 C.3     1  UNL1        0.0000
     24 C           7.7893    1.0669    1.1794 C.3     1  UNL1        0.0000
     25 H           2.7107    3.0892    1.3788 H       1  UNL1        0.0000
     26 H           3.8533    2.2725    0.3305 H       1  UNL1        0.0000
     27 H           4.0488    3.9760    0.6620 H       1  UNL1        0.0000
     28 H           1.5511    2.6218    4.8224 H       1  UNL1        0.0000
     29 H           2.1202    3.1762    6.3907 H       1  UNL1        0.0000
     30 H           1.9010    1.4691    6.0951 H       1  UNL1        0.0000
     31 H           2.9689    5.2928    2.7877 H       1  UNL1        0.0000
     32 H           3.1100    6.6148    3.9516 H       1  UNL1        0.0000
     33 H           2.4129    5.0686    4.4468 H       1  UNL1        0.0000
     34 H           5.4468    5.4880    2.3000 H       1  UNL1        0.0000
     35 H           6.6265    5.3195    3.6170 H       1  UNL1        0.0000
     36 H           5.6187    6.7778    3.4960 H       1  UNL1        0.0000
     37 H           4.0912    4.9259    6.3360 H       1  UNL1        0.0000
     38 H           4.8283    6.4530    5.8378 H       1  UNL1        0.0000
     39 H           5.8311    4.9937    5.9852 H       1  UNL1        0.0000
     40 H           3.2298   -0.5622    5.2775 H       1  UNL1        0.0000
     41 H           4.9032   -0.9322    4.8442 H       1  UNL1        0.0000
     42 H           3.5859   -1.9552    4.2491 H       1  UNL1        0.0000
     43 H           2.2237    0.6024    1.8758 H       1  UNL1        0.0000
     44 H           1.6615    0.3756    3.5341 H       1  UNL1        0.0000
     45 H           1.9803   -1.0299    2.5099 H       1  UNL1        0.0000
     46 H           4.5929   -0.0058    1.2554 H       1  UNL1        0.0000
     47 H           4.3789   -1.6322    1.9144 H       1  UNL1        0.0000
     48 H           5.6995   -0.6058    2.4964 H       1  UNL1        0.0000
     49 H           6.9050    3.3973    7.8532 H       1  UNL1        0.0000
     50 H           7.7427    1.9368    7.2632 H       1  UNL1        0.0000
     51 H           7.1473    2.0132    8.9265 H       1  UNL1        0.0000
     52 H           4.4094    3.2891    8.3535 H       1  UNL1        0.0000
     53 H           4.6882    1.8955    9.4059 H       1  UNL1        0.0000
     54 H           3.5221    1.7870    8.0823 H       1  UNL1        0.0000
     55 H           4.7005   -0.2456    7.2461 H       1  UNL1        0.0000
     56 H           5.9468   -0.1425    8.4961 H       1  UNL1        0.0000
     57 H           6.4090   -0.1713    6.7890 H       1  UNL1        0.0000
     58 H           9.1695    2.5165    3.0325 H       1  UNL1        0.0000
     59 H           8.7349    4.1452    2.4484 H       1  UNL1        0.0000
     60 H           9.6785    3.0535    1.4266 H       1  UNL1        0.0000
     61 H           6.2972    2.9463   -0.1419 H       1  UNL1        0.0000
     62 H           8.0094    3.2746   -0.4317 H       1  UNL1        0.0000
     63 H           7.0486    4.3841    0.5546 H       1  UNL1        0.0000
     64 H           7.9906    0.4820    2.0745 H       1  UNL1        0.0000
     65 H           8.6340    0.9722    0.5014 H       1  UNL1        0.0000
     66 H           6.9019    0.6728    0.6919 H       1  UNL1        0.0000
@<TRIPOS>BOND
     1    62    23    1
     2    61    23    1
     3    23    63    1
     4    23    21    1
     5    26     7    1
     6    65    24    1
     7    27     7    1
     8    66    24    1
     9     7    25    1
    10     7     1    1
    11    24    21    1
    12    24    64    1
    13    46    16    1
    14    60    22    1
    15    21    22    1
    16    21     6    1
    17    43    15    1
    18    47    16    1
    19    16    48    1
    20    16    13    1
    21    22    59    1
    22    22    58    1
    23    34    11    1
    24    45    15    1
    25     1     6    1
    26     1     4    1
    27     1     3    1
    28    15    13    1
    29    15    44    1
    30    31    10    1
    31    13     4    1
    32    13    14    1
    33    11    36    1
    34    11    35    1
    35    11     9    1
    36     4     2    1
    37    10    32    1
    38    10     9    1
    39    10    33    1
    40     3     9    1
    41     3     2    1
    42     9    12    1
    43    42    14    1
    44    14    41    1
    45    14    40    1
    46    28     8    1
    47     2     8    1
    48     2     5    1
    49     8    30    1
    50     8    29    1
    51    12    38    1
    52    12    39    1
    53    12    37    1
    54     5    17    1
    55    57    20    1
    56    55    20    1
    57    50    18    1
    58    17    20    1
    59    17    18    1
    60    17    19    1
    61    20    56    1
    62    49    18    1
    63    18    51    1
    64    54    19    1
    65    52    19    1
    66    19    53    1
