@<TRIPOS>MOLECULE
3,5,6
 66 66 0 0 0
SMALL
GASTEIGER

@<TRIPOS>ATOM
      1 SI          3.8878   15.7940    3.0617 Si      1  UNL1        0.0000
      2 SI          3.0904   15.4395    5.5649 Si      1  UNL1        0.0000
      3 N           3.2536   14.4497    4.0730 N.3     1  UNL1        0.0000
      4 N           3.7286   16.7268    4.5467 N.3     1  UNL1        0.0000
      5 N           1.4016   15.3294    5.5903 N.3     1  UNL1        0.0000
      6 N           2.5281   15.8295    2.0544 N.3     1  UNL1        0.0000
      7 C           5.6914   15.6654    2.4698 C.3     1  UNL1        0.0000
      8 C           4.2408   15.0217    7.0215 C.3     1  UNL1        0.0000
      9 C           3.3350   13.0203    3.8963 C.3     1  UNL1        0.0000
     10 C           2.2770   12.3433    4.7850 C.3     1  UNL1        0.0000
     11 C           3.0262   12.6771    2.4285 C.3     1  UNL1        0.0000
     12 C           4.7308   12.4897    4.2649 C.3     1  UNL1        0.0000
     13 C           4.0568   18.1038    4.8472 C.3     1  UNL1        0.0000
     14 C           3.1028   18.6261    5.9237 C.3     1  UNL1        0.0000
     15 C           3.8713   18.9537    3.5885 C.3     1  UNL1        0.0000
     16 C           5.5083   18.2168    5.3405 C.3     1  UNL1        0.0000
     17 C           0.3696   15.4361    6.5963 C.3     1  UNL1        0.0000
     18 C          -0.9249   14.8668    5.9758 C.3     1  UNL1        0.0000
     19 C           0.1167   16.8973    7.0038 C.3     1  UNL1        0.0000
     20 C           0.7336   14.6148    7.8433 C.3     1  UNL1        0.0000
     21 C           2.2450   16.2717    0.7080 C.3     1  UNL1        0.0000
     22 C           0.8775   15.6717    0.3150 C.3     1  UNL1        0.0000
     23 C           3.3165   15.7660   -0.2709 C.3     1  UNL1        0.0000
     24 C           2.1531   17.8041    0.6165 C.3     1  UNL1        0.0000
     25 H           6.3685   15.4584    3.2903 H       1  UNL1        0.0000
     26 H           5.9991   16.5973    2.0106 H       1  UNL1        0.0000
     27 H           5.8045   14.8849    1.7268 H       1  UNL1        0.0000
     28 H           5.2792   14.9824    6.7137 H       1  UNL1        0.0000
     29 H           3.9788   14.0690    7.4662 H       1  UNL1        0.0000
     30 H           4.1502   15.7760    7.7941 H       1  UNL1        0.0000
     31 H           1.2810   12.7355    4.5366 H       1  UNL1        0.0000
     32 H           2.4844   12.5500    5.8332 H       1  UNL1        0.0000
     33 H           2.2822   11.2649    4.6343 H       1  UNL1        0.0000
     34 H           3.7728   13.1269    1.7766 H       1  UNL1        0.0000
     35 H           2.0364   13.0702    2.1580 H       1  UNL1        0.0000
     36 H           3.0342   11.5990    2.2766 H       1  UNL1        0.0000
     37 H           5.4824   12.9578    3.6352 H       1  UNL1        0.0000
     38 H           4.7846   11.4118    4.1317 H       1  UNL1        0.0000
     39 H           4.9539   12.7255    5.3018 H       1  UNL1        0.0000
     40 H           3.2267   18.0569    6.8414 H       1  UNL1        0.0000
     41 H           2.0793   18.5128    5.5736 H       1  UNL1        0.0000
     42 H           3.2963   19.6755    6.1328 H       1  UNL1        0.0000
     43 H           4.5496   18.6195    2.8077 H       1  UNL1        0.0000
     44 H           4.0690   20.0019    3.8000 H       1  UNL1        0.0000
     45 H           2.8479   18.8457    3.2372 H       1  UNL1        0.0000
     46 H           6.1878   17.8500    4.5758 H       1  UNL1        0.0000
     47 H           5.6410   17.6191    6.2383 H       1  UNL1        0.0000
     48 H           5.7568   19.2510    5.5660 H       1  UNL1        0.0000
     49 H          -1.2164   15.4669    5.1043 H       1  UNL1        0.0000
     50 H          -1.7377   14.8965    6.6997 H       1  UNL1        0.0000
     51 H          -0.7712   13.8276    5.6701 H       1  UNL1        0.0000
     52 H          -0.0890   17.4936    6.1156 H       1  UNL1        0.0000
     53 H           0.9921   17.3000    7.5061 H       1  UNL1        0.0000
     54 H          -0.7353   16.9631    7.6767 H       1  UNL1        0.0000
     55 H           0.9045   13.5767    7.5670 H       1  UNL1        0.0000
     56 H          -0.0687   14.6575    8.5755 H       1  UNL1        0.0000
     57 H           1.6408   15.0089    8.2922 H       1  UNL1        0.0000
     58 H           0.0959   16.0537    0.9841 H       1  UNL1        0.0000
     59 H           0.9125   14.5800    0.3785 H       1  UNL1        0.0000
     60 H           0.6204   15.9495   -0.7060 H       1  UNL1        0.0000
     61 H           4.2837   16.1843   -0.0067 H       1  UNL1        0.0000
     62 H           3.0722   16.0597   -1.2886 H       1  UNL1        0.0000
     63 H           3.3814   14.6813   -0.2223 H       1  UNL1        0.0000
     64 H           1.4332   18.1709    1.3474 H       1  UNL1        0.0000
     65 H           1.8313   18.1077   -0.3771 H       1  UNL1        0.0000
     66 H           3.1238   18.2475    0.8214 H       1  UNL1        0.0000
@<TRIPOS>BOND
     1    62    23    1
     2    60    22    1
     3    65    24    1
     4    23    63    1
     5    23    61    1
     6    23    21    1
     7    22    59    1
     8    22    21    1
     9    22    58    1
    10    24    21    1
    11    24    66    1
    12    24    64    1
    13    21     6    1
    14    27     7    1
    15    34    11    1
    16    26     7    1
    17     6     1    1
    18    35    11    1
    19    36    11    1
    20    11     9    1
    21     7     1    1
    22     7    25    1
    23    43    15    1
    24     1     3    1
    25     1     4    1
    26    45    15    1
    27    15    44    1
    28    15    13    1
    29    37    12    1
    30     9     3    1
    31     9    12    1
    32     9    10    1
    33     3     2    1
    34    38    12    1
    35    12    39    1
    36    31    10    1
    37     4    13    1
    38     4     2    1
    39    46    16    1
    40    33    10    1
    41    10    32    1
    42    13    16    1
    43    13    14    1
    44    49    18    1
    45    16    48    1
    46    16    47    1
    47     2     5    1
    48     2     8    1
    49    41    14    1
    50     5    17    1
    51    51    18    1
    52    14    42    1
    53    14    40    1
    54    18    17    1
    55    18    50    1
    56    52    19    1
    57    17    19    1
    58    17    20    1
    59    28     8    1
    60    19    53    1
    61    19    54    1
    62     8    29    1
    63     8    30    1
    64    55    20    1
    65    20    57    1
    66    20    56    1
