@<TRIPOS>MOLECULE
1,2,3
 42 42 0 0 0
SMALL
GASTEIGER

@<TRIPOS>ATOM
      1 N           2.9521    0.4604    5.5934 N.3     1  UNL1        0.0000
      2 N           4.0174    1.3694    7.2859 N.3     1  UNL1        0.0000
      3 N           2.1305    2.0249    8.9662 N.3     1  UNL1        0.0000
      4 SI          2.3147   -0.0205    4.0636 Si      1  UNL1        0.0000
      5 C           3.6711    1.4760    6.0159 C.3     1  UNL1        0.0000
      6 C           4.0532    2.6247    5.1558 C.ar    1  UNL1        0.0000
      7 C           3.0779    3.4871    4.6659 C.ar    1  UNL1        0.0000
      8 C           3.4353    4.5488    3.8540 C.ar    1  UNL1        0.0000
      9 C           4.7646    4.7532    3.5227 C.ar    1  UNL1        0.0000
     10 C           5.7391    3.8994    4.0131 C.ar    1  UNL1        0.0000
     11 C           5.3886    2.8424    4.8343 C.ar    1  UNL1        0.0000
     12 C           4.3966    2.4778    8.1149 C.3     1  UNL1        0.0000
     13 C           3.4995    2.3672    9.3652 C.3     1  UNL1        0.0000
     14 C           1.4603    3.1855    8.3847 C.3     1  UNL1        0.0000
     15 C           1.3578    1.5445   10.1105 C.3     1  UNL1        0.0000
     16 C           3.7170   -0.0692    2.7637 C.3     1  UNL1        0.0000
     17 C           0.9012    1.0948    3.4055 C.3     1  UNL1        0.0000
     18 C           1.6260   -1.7524    4.4843 C.3     1  UNL1        0.0000
     19 H           2.0406    3.3220    4.9251 H       1  UNL1        0.0000
     20 H           2.6742    5.2167    3.4777 H       1  UNL1        0.0000
     21 H           5.0413    5.5785    2.8835 H       1  UNL1        0.0000
     22 H           6.7761    4.0580    3.7562 H       1  UNL1        0.0000
     23 H           6.1428    2.1715    5.2205 H       1  UNL1        0.0000
     24 H           5.4503    2.3964    8.4200 H       1  UNL1        0.0000
     25 H           4.2720    3.4518    7.6098 H       1  UNL1        0.0000
     26 H           3.5231    3.2994    9.9541 H       1  UNL1        0.0000
     27 H           3.8792    1.5398    9.9731 H       1  UNL1        0.0000
     28 H           0.4591    2.8975    8.0538 H       1  UNL1        0.0000
     29 H           1.3756    3.9991    9.1227 H       1  UNL1        0.0000
     30 H           2.0171    3.5608    7.5232 H       1  UNL1        0.0000
     31 H           0.3488    1.2875    9.7756 H       1  UNL1        0.0000
     32 H           1.2966    2.3102   10.8997 H       1  UNL1        0.0000
     33 H           1.8257    0.6384   10.5030 H       1  UNL1        0.0000
     34 H           3.3636   -0.5003    1.8341 H       1  UNL1        0.0000
     35 H           4.5562   -0.6647    3.1089 H       1  UNL1        0.0000
     36 H           4.0869    0.9287    2.5465 H       1  UNL1        0.0000
     37 H           0.3404    0.5766    2.6334 H       1  UNL1        0.0000
     38 H           0.2031    1.3409    4.2024 H       1  UNL1        0.0000
     39 H           1.2700    2.0208    2.9722 H       1  UNL1        0.0000
     40 H           0.8036   -2.0322    3.8337 H       1  UNL1        0.0000
     41 H           2.3873   -2.5233    4.4035 H       1  UNL1        0.0000
     42 H           1.2617   -1.7467    5.5163 H       1  UNL1        0.0000
@<TRIPOS>BOND
     1    34    16    1
     2    36    16    1
     3    37    17    1
     4    16    35    1
     5    16     4    1
     6    21     9    1
     7    39    17    1
     8    17     4    1
     9    17    38    1
    10    20     8    1
    11     9     8   ar
    12     9    10   ar
    13    22    10    1
    14    40    18    1
    15     8     7   ar
    16    10    11   ar
    17     4    18    1
    18     4     1    1
    19    41    18    1
    20    18    42    1
    21     7    19    1
    22     7     6   ar
    23    11     6   ar
    24    11    23    1
    25     6     5    1
    26     1     5    1
    27     5     2    1
    28     2    12    1
    29    30    14    1
    30    25    12    1
    31    28    14    1
    32    12    24    1
    33    12    13    1
    34    14     3    1
    35    14    29    1
    36     3    13    1
    37     3    15    1
    38    13    26    1
    39    13    27    1
    40    31    15    1
    41    15    33    1
    42    15    32    1
