@<TRIPOS>MOLECULE
1,2,3
 45 45 0 0 0
SMALL
GASTEIGER

@<TRIPOS>ATOM
      1 N           8.6627    3.8532    3.6651 N.3     1  UNL1        0.0000
      2 N          10.3790    3.4180    4.9938 N.3     1  UNL1        0.0000
      3 N          10.1919    5.1555    7.1438 N.3     1  UNL1        0.0000
      4 SI          7.7020    4.0524    2.2361 Si      1  UNL1        0.0000
      5 C           9.8559    3.3056    3.7890 C.3     1  UNL1        0.0000
      6 C          10.5743    2.6602    2.6617 C.ar    1  UNL1        0.0000
      7 C          10.6602    1.2771    2.5604 C.ar    1  UNL1        0.0000
      8 C          11.3300    0.7014    1.4948 C.ar    1  UNL1        0.0000
      9 C          11.9270    1.5015    0.5352 C.ar    1  UNL1        0.0000
     10 C          11.8531    2.8810    0.6406 C.ar    1  UNL1        0.0000
     11 C          11.1785    3.4624    1.6992 C.ar    1  UNL1        0.0000
     12 C          11.7591    3.1104    5.2607 C.3     1  UNL1        0.0000
     13 C          12.0871    3.5003    6.7058 C.3     1  UNL1        0.0000
     14 C          11.6449    4.9221    7.0696 C.3     1  UNL1        0.0000
     15 C           9.5535    4.2115    8.0618 C.3     1  UNL1        0.0000
     16 C           9.9809    6.5190    7.6413 C.3     1  UNL1        0.0000
     17 C           5.9265    4.3333    2.8834 C.3     1  UNL1        0.0000
     18 C           8.3301    5.5780    1.2570 C.3     1  UNL1        0.0000
     19 C           7.7054    2.5067    1.1050 C.3     1  UNL1        0.0000
     20 H          10.1876    0.6552    3.3079 H       1  UNL1        0.0000
     21 H          11.3848   -0.3743    1.4127 H       1  UNL1        0.0000
     22 H          12.4488    1.0495   -0.2953 H       1  UNL1        0.0000
     23 H          12.3196    3.5058   -0.1067 H       1  UNL1        0.0000
     24 H          11.1078    4.5370    1.7919 H       1  UNL1        0.0000
     25 H          12.4207    3.6637    4.5729 H       1  UNL1        0.0000
     26 H          11.9637    2.0370    5.1178 H       1  UNL1        0.0000
     27 H          13.1700    3.4465    6.8410 H       1  UNL1        0.0000
     28 H          11.6388    2.7766    7.3886 H       1  UNL1        0.0000
     29 H          12.0899    5.1665    8.0509 H       1  UNL1        0.0000
     30 H          12.0407    5.6183    6.3214 H       1  UNL1        0.0000
     31 H           8.5259    4.5303    8.2500 H       1  UNL1        0.0000
     32 H          10.0913    4.1678    9.0212 H       1  UNL1        0.0000
     33 H           9.5244    3.2135    7.6172 H       1  UNL1        0.0000
     34 H           8.9090    6.7288    7.6842 H       1  UNL1        0.0000
     35 H          10.4156    6.6408    8.6457 H       1  UNL1        0.0000
     36 H          10.4454    7.2321    6.9546 H       1  UNL1        0.0000
     37 H           5.2760    4.6886    2.0909 H       1  UNL1        0.0000
     38 H           5.9092    5.0709    3.6826 H       1  UNL1        0.0000
     39 H           5.4938    3.4172    3.2765 H       1  UNL1        0.0000
     40 H           7.5072    6.1571    0.8504 H       1  UNL1        0.0000
     41 H           8.9658    5.2892    0.4247 H       1  UNL1        0.0000
     42 H           8.9063    6.2348    1.9080 H       1  UNL1        0.0000
     43 H           6.8998    2.5744    0.3819 H       1  UNL1        0.0000
     44 H           8.6351    2.4065    0.5544 H       1  UNL1        0.0000
     45 H           7.5598    1.5930    1.6735 H       1  UNL1        0.0000
@<TRIPOS>BOND
     1    22     9    1
     2    23    10    1
     3    43    19    1
     4    41    18    1
     5     9    10   ar
     6     9     8   ar
     7    44    19    1
     8    10    11   ar
     9    40    18    1
    10    19    45    1
    11    19     4    1
    12    18    42    1
    13    18     4    1
    14    21     8    1
    15     8     7   ar
    16    11    24    1
    17    11     6   ar
    18    37    17    1
    19     4    17    1
    20     4     1    1
    21     7     6   ar
    22     7    20    1
    23     6     5    1
    24    17    39    1
    25    17    38    1
    26     1     5    1
    27     5     2    1
    28    25    12    1
    29     2    12    1
    30    26    12    1
    31    12    13    1
    32    30    14    1
    33    13    27    1
    34    13    14    1
    35    13    28    1
    36    36    16    1
    37    14     3    1
    38    14    29    1
    39     3    16    1
    40     3    15    1
    41    33    15    1
    42    16    34    1
    43    16    35    1
    44    15    31    1
    45    15    32    1
