@<TRIPOS>MOLECULE
3,5,7
 26 28 0 0 0
SMALL
GASTEIGER

@<TRIPOS>ATOM
      1 B           5.0204   13.2199   17.4192 B       1  UNL1        0.0000
      2 H           4.2090   13.9748   17.8315 H       1  UNL1        0.0000
      3 N           6.4718   11.3480   18.2833 N.3     1  UNL1        0.0000
      4 N           5.5145   12.2585   18.5079 N.pl3   1  UNL1        0.0000
      5 N           5.2593   11.4778   15.6664 N.3     1  UNL1        0.0000
      6 N           4.4853   12.3843   16.2613 N.pl3   1  UNL1        0.0000
      7 N           7.3379   13.2568   16.5065 N.3     1  UNL1        0.0000
      8 N           6.2687   13.9474   16.9029 N.pl3   1  UNL1        0.0000
      9 C           6.7991   10.8179   19.4544 C.3     1  UNL1        0.0000
     10 H           7.5591   10.0679   19.5431 H       1  UNL1        0.0000
     11 C           6.0229   11.3847   20.4652 C.2     1  UNL1        0.0000
     12 H           6.0503   11.1574   21.5105 H       1  UNL1        0.0000
     13 C           5.2222   12.2979   19.8179 C.2     1  UNL1        0.0000
     14 H           4.4756   12.9662   20.1964 H       1  UNL1        0.0000
     15 C           4.5353   10.8979   14.7160 C.3     1  UNL1        0.0000
     16 H           4.9364   10.1189   14.0958 H       1  UNL1        0.0000
     17 C           3.2572   11.4540   14.6905 C.2     1  UNL1        0.0000
     18 H           2.4494   11.1986   14.0364 H       1  UNL1        0.0000
     19 C           3.2701   12.3974   15.6950 C.2     1  UNL1        0.0000
     20 H           2.5067   13.0651   16.0393 H       1  UNL1        0.0000
     21 C           8.3048   14.1276   16.2514 C.3     1  UNL1        0.0000
     22 H           9.2803   13.8104   15.9347 H       1  UNL1        0.0000
     23 C           7.8443   15.4234   16.4739 C.2     1  UNL1        0.0000
     24 H           8.3863   16.3380   16.3506 H       1  UNL1        0.0000
     25 C           6.5414   15.2599   16.8912 C.2     1  UNL1        0.0000
     26 H           5.8033   15.9803   17.1800 H       1  UNL1        0.0000
@<TRIPOS>BOND
     1    18    17    1
     2    16    15    1
     3    17    15    1
     4    17    19    2
     5    15     5    1
     6     5     6    1
     7    19    20    1
     8    19     6    1
     9    22    21    1
    10    21    23    1
    11    21     7    1
    12     6     1    1
    13    24    23    1
    14    23    25    2
    15     7     8    1
    16    25     8    1
    17    25    26    1
    18     8     1    1
    19     1     2    1
    20     1     4    1
    21     3     4    1
    22     3     9    1
    23     4    13    1
    24     9    10    1
    25     9    11    1
    26    13    14    1
    27    13    11    2
    28    11    12    1
