@<TRIPOS>MOLECULE
3,5,7
 26 28 0 0 0
SMALL
GASTEIGER

@<TRIPOS>ATOM
      1 B          20.9029   14.0155    5.1277 B       1  UNL1        0.0000
      2 H          22.0644   13.8784    5.3042 H       1  UNL1        0.0000
      3 N          18.8494   12.6311    4.9254 N.3     1  UNL1        0.0000
      4 N          20.1779   12.6721    5.0147 N.pl3   1  UNL1        0.0000
      5 N          19.3549   15.0594    3.4832 N.3     1  UNL1        0.0000
      6 N          20.6093   14.7892    3.8434 N.pl3   1  UNL1        0.0000
      7 N          18.9243   15.0563    6.2937 N.3     1  UNL1        0.0000
      8 N          20.2344   14.7780    6.2785 N.pl3   1  UNL1        0.0000
      9 C          18.4852   11.3570    4.9616 C.3     1  UNL1        0.0000
     10 H          17.4524   11.0656    4.9280 H       1  UNL1        0.0000
     11 C          19.6134   10.5457    5.0629 C.2     1  UNL1        0.0000
     12 H          19.6461    9.4769    5.1076 H       1  UNL1        0.0000
     13 C          20.6711   11.4280    5.0963 C.2     1  UNL1        0.0000
     14 H          21.7251   11.2551    5.1756 H       1  UNL1        0.0000
     15 C          19.4073   15.7707    2.3628 C.3     1  UNL1        0.0000
     16 H          18.5180   16.1217    1.8745 H       1  UNL1        0.0000
     17 C          20.7355   15.9574    1.9827 C.2     1  UNL1        0.0000
     18 H          21.0994   16.4853    1.1255 H       1  UNL1        0.0000
     19 C          21.4677   15.3157    2.9580 C.2     1  UNL1        0.0000
     20 H          22.5258   15.2025    3.0793 H       1  UNL1        0.0000
     21 C          18.6619   15.6716    7.4394 C.3     1  UNL1        0.0000
     22 H          17.6740   16.0047    7.6864 H       1  UNL1        0.0000
     23 C          19.8326   15.8028    8.1864 C.2     1  UNL1        0.0000
     24 H          19.9435   16.2569    9.1491 H       1  UNL1        0.0000
     25 C          20.8076   15.2190    7.4096 C.2     1  UNL1        0.0000
     26 H          21.8566   15.0897    7.5834 H       1  UNL1        0.0000
@<TRIPOS>BOND
     1    18    17    1
     2    16    15    1
     3    17    15    1
     4    17    19    2
     5    15     5    1
     6    19    20    1
     7    19     6    1
     8     5     6    1
     9     6     1    1
    10     3     9    1
    11     3     4    1
    12    10     9    1
    13     9    11    1
    14     4    13    1
    15     4     1    1
    16    11    13    2
    17    11    12    1
    18    13    14    1
    19     1     2    1
    20     1     8    1
    21     8     7    1
    22     8    25    1
    23     7    21    1
    24    25    26    1
    25    25    23    2
    26    21    22    1
    27    21    23    1
    28    23    24    1
