@<TRIPOS>MOLECULE
3,4,5
 67 67 0 0 0
SMALL
GASTEIGER

@<TRIPOS>ATOM
      1 SI          3.6036   18.5411    1.7956 Si      1  UNL1        0.0000
      2 SI          6.3036   14.0250    5.4366 Si      1  UNL1        0.0000
      3 N           6.4756   15.3395    4.3681 N.3     1  UNL1        0.0000
      4 N           5.0222   17.7601    2.3336 N.3     1  UNL1        0.0000
      5 N           3.9919   15.4183    3.4121 N.pl3   1  UNL1        0.0000
      6 C           6.9053   15.1067    3.0175 C.3     1  UNL1        0.0000
      7 H           7.2378   14.0674    2.8874 H       1  UNL1        0.0000
      8 H           7.7719   15.7480    2.7688 H       1  UNL1        0.0000
      9 C           5.8446   15.3503    1.8748 C.3     1  UNL1        0.0000
     10 C           5.7455   16.8671    1.4687 C.3     1  UNL1        0.0000
     11 H           6.7930   17.2049    1.3539 H       1  UNL1        0.0000
     12 H           5.3088   16.8622    0.4613 H       1  UNL1        0.0000
     13 C           6.3863   14.6185    0.6371 C.3     1  UNL1        0.0000
     14 H           6.4840   13.5506    0.8205 H       1  UNL1        0.0000
     15 H           7.3739   15.0076    0.3957 H       1  UNL1        0.0000
     16 H           5.7474   14.7717   -0.2304 H       1  UNL1        0.0000
     17 C           4.5010   14.8523    2.3057 C.3     1  UNL1        0.0000
     18 C           3.8023   13.8549    1.6195 C.2     1  UNL1        0.0000
     19 H           4.2077   13.4161    0.7237 H       1  UNL1        0.0000
     20 C           2.5788   13.4221    2.0899 C.2     1  UNL1        0.0000
     21 H           2.0304   12.6535    1.5662 H       1  UNL1        0.0000
     22 C           2.0737   13.9922    3.2520 C.2     1  UNL1        0.0000
     23 H           1.1272   13.6772    3.6612 H       1  UNL1        0.0000
     24 C           2.8125   14.9846    3.8649 C.2     1  UNL1        0.0000
     25 H           2.4454   15.4663    4.7636 H       1  UNL1        0.0000
     26 C           5.1804   14.6632    6.8430 C.3     1  UNL1        0.0000
     27 H           4.1422   14.4117    6.6457 H       1  UNL1        0.0000
     28 H           5.2637   15.7462    6.9298 H       1  UNL1        0.0000
     29 H           5.4384   14.2231    7.7999 H       1  UNL1        0.0000
     30 C           5.4643   12.4592    4.6810 C.3     1  UNL1        0.0000
     31 H           6.1041   11.9855    3.9420 H       1  UNL1        0.0000
     32 H           4.5338   12.7169    4.1848 H       1  UNL1        0.0000
     33 H           5.2326   11.7148    5.4347 H       1  UNL1        0.0000
     34 C           7.9941   13.3781    6.1797 C.3     1  UNL1        0.0000
     35 C           8.5664   14.3675    7.1959 C.3     1  UNL1        0.0000
     36 H           7.8754   14.5140    8.0211 H       1  UNL1        0.0000
     37 H           8.7623   15.3325    6.7351 H       1  UNL1        0.0000
     38 H           9.5062   13.9938    7.6044 H       1  UNL1        0.0000
     39 C           9.0254   13.1907    5.0656 C.3     1  UNL1        0.0000
     40 H           9.9710   12.8303    5.4719 H       1  UNL1        0.0000
     41 H           9.2103   14.1321    4.5525 H       1  UNL1        0.0000
     42 H           8.6764   12.4648    4.3342 H       1  UNL1        0.0000
     43 C           7.7996   12.0380    6.8915 C.3     1  UNL1        0.0000
     44 H           7.0407   12.1194    7.6658 H       1  UNL1        0.0000
     45 H           8.7303   11.7183    7.3611 H       1  UNL1        0.0000
     46 H           7.4942   11.2654    6.1920 H       1  UNL1        0.0000
     47 C           3.1748   19.9180    3.0498 C.3     1  UNL1        0.0000
     48 H           2.1282   20.1859    2.9562 H       1  UNL1        0.0000
     49 H           3.7495   20.8229    2.8856 H       1  UNL1        0.0000
     50 H           3.3354   19.5972    4.0742 H       1  UNL1        0.0000
     51 C           2.0320   17.4218    1.6675 C.3     1  UNL1        0.0000
     52 H           2.2271   16.5068    1.1138 H       1  UNL1        0.0000
     53 H           1.2058   17.9284    1.1791 H       1  UNL1        0.0000
     54 H           1.6962   17.1389    2.6622 H       1  UNL1        0.0000
     55 C           3.7804   19.4163    0.0544 C.3     1  UNL1        0.0000
     56 C           5.1646   20.0551   -0.0748 C.3     1  UNL1        0.0000
     57 H           5.3376   20.7579    0.7373 H       1  UNL1        0.0000
     58 H           5.2535   20.5959   -1.0179 H       1  UNL1        0.0000
     59 H           5.9446   19.2976   -0.0435 H       1  UNL1        0.0000
     60 C           3.5800   18.4423   -1.1083 C.3     1  UNL1        0.0000
     61 H           4.3327   17.6568   -1.1054 H       1  UNL1        0.0000
     62 H           3.6532   18.9669   -2.0619 H       1  UNL1        0.0000
     63 H           2.6010   17.9737   -1.0542 H       1  UNL1        0.0000
     64 C           2.7294   20.5199   -0.0880 C.3     1  UNL1        0.0000
     65 H           1.7259   20.1144    0.0122 H       1  UNL1        0.0000
     66 H           2.8064   20.9942   -1.0671 H       1  UNL1        0.0000
     67 H           2.8634   21.2855    0.6699 H       1  UNL1        0.0000
@<TRIPOS>BOND
     1    62    60    1
     2    60    61    1
     3    60    63    1
     4    60    55    1
     5    66    64    1
     6    58    56    1
     7    16    13    1
     8    64    65    1
     9    64    55    1
    10    64    67    1
    11    56    59    1
    12    56    55    1
    13    56    57    1
    14    55     1    1
    15    15    13    1
    16    12    10    1
    17    13    14    1
    18    13     9    1
    19    19    18    1
    20    52    51    1
    21    53    51    1
    22    11    10    1
    23    10     9    1
    24    10     4    1
    25    21    20    1
    26    18    20    2
    27    18    17    1
    28    51     1    1
    29    51    54    1
    30     1     4    1
    31     1    47    1
    32     9    17    1
    33     9     6    1
    34    20    22    1
    35    17     5    1
    36     8     6    1
    37    49    47    1
    38     7     6    1
    39    48    47    1
    40     6     3    1
    41    47    50    1
    42    22    23    1
    43    22    24    2
    44     5    24    1
    45    24    25    1
    46    31    30    1
    47    32    30    1
    48    42    39    1
    49     3     2    1
    50    41    39    1
    51    30    33    1
    52    30     2    1
    53    39    40    1
    54    39    34    1
    55     2    34    1
    56     2    26    1
    57    34    43    1
    58    34    35    1
    59    46    43    1
    60    27    26    1
    61    37    35    1
    62    26    28    1
    63    26    29    1
    64    43    45    1
    65    43    44    1
    66    35    38    1
    67    35    36    1
