@<TRIPOS>MOLECULE
2,5,6
 44 46 0 0 0
SMALL
GASTEIGER

@<TRIPOS>ATOM
      1 B          -1.2119   -2.8834    2.7058 B       1  UNL1        0.0000
      2 N           0.9969   -1.8072    3.3174 N.3     1  UNL1        0.0000
      3 N           0.2859   -2.9342    3.0773 N.pl3   1  UNL1        0.0000
      4 N          -2.0682   -2.6973    3.9771 N.3     1  UNL1        0.0000
      5 N          -1.9859   -1.5836    4.7394 N.pl3   1  UNL1        0.0000
      6 N          -1.1560   -0.4069    2.1417 N.pl3   1  UNL1        0.0000
      7 N          -1.4390   -1.6796    1.7722 N.3     1  UNL1        0.0000
      8 H          -1.5245   -3.8809    2.1614 H       1  UNL1        0.0000
      9 C           3.3624   -1.1683    3.6707 C.3     1  UNL1        0.0000
     10 H           2.9577   -0.2373    4.0672 H       1  UNL1        0.0000
     11 H           3.8548   -0.9453    2.7233 H       1  UNL1        0.0000
     12 H           4.1052   -1.5683    4.3573 H       1  UNL1        0.0000
     13 C           2.2755   -2.1606    3.4538 C.3     1  UNL1        0.0000
     14 C           2.3918   -3.5449    3.3117 C.2     1  UNL1        0.0000
     15 H           3.2853   -4.1311    3.3807 H       1  UNL1        0.0000
     16 C           1.1086   -4.0005    3.0773 C.2     1  UNL1        0.0000
     17 C           0.6585   -5.4038    2.8849 C.3     1  UNL1        0.0000
     18 H           1.5175   -6.0671    2.9336 H       1  UNL1        0.0000
     19 H           0.1674   -5.5305    1.9218 H       1  UNL1        0.0000
     20 H          -0.0453   -5.6849    3.6665 H       1  UNL1        0.0000
     21 C          -2.2339   -2.9366   -0.2483 C.3     1  UNL1        0.0000
     22 H          -2.5478   -2.6702   -1.2540 H       1  UNL1        0.0000
     23 H          -3.0546   -3.4453    0.2541 H       1  UNL1        0.0000
     24 H          -1.3952   -3.6271   -0.3136 H       1  UNL1        0.0000
     25 C          -1.8433   -1.7049    0.4878 C.3     1  UNL1        0.0000
     26 C          -1.8199   -0.4079    0.0127 C.2     1  UNL1        0.0000
     27 H          -2.0786   -0.0731   -0.9714 H       1  UNL1        0.0000
     28 C          -1.3742    0.3729    1.0820 C.2     1  UNL1        0.0000
     29 C          -1.1510    1.8436    1.0906 C.3     1  UNL1        0.0000
     30 H          -0.4879    2.1225    1.9079 H       1  UNL1        0.0000
     31 H          -2.0982    2.3719    1.1971 H       1  UNL1        0.0000
     32 H          -0.6992    2.1502    0.1490 H       1  UNL1        0.0000
     33 C          -3.3244   -4.8678    3.9169 C.3     1  UNL1        0.0000
     34 H          -4.0655   -5.3529    4.5465 H       1  UNL1        0.0000
     35 H          -2.4488   -5.5095    3.8444 H       1  UNL1        0.0000
     36 H          -3.7368   -4.7474    2.9168 H       1  UNL1        0.0000
     37 C          -2.9695   -3.5479    4.5018 C.3     1  UNL1        0.0000
     38 C          -3.4844   -2.9639    5.6448 C.2     1  UNL1        0.0000
     39 H          -4.2214   -3.3709    6.3070 H       1  UNL1        0.0000
     40 C          -2.8359   -1.7324    5.7567 C.2     1  UNL1        0.0000
     41 C          -3.0122   -0.7068    6.8193 C.3     1  UNL1        0.0000
     42 H          -2.7056   -1.1093    7.7852 H       1  UNL1        0.0000
     43 H          -4.0593   -0.4135    6.8971 H       1  UNL1        0.0000
     44 H          -2.3992    0.1660    6.6021 H       1  UNL1        0.0000
@<TRIPOS>BOND
     1    22    21    1
     2    27    26    1
     3    24    21    1
     4    21    23    1
     5    21    25    1
     6    26    25    1
     7    26    28    2
     8    32    29    1
     9    25     7    1
    10    28    29    1
    11    28     6    1
    12    29    31    1
    13    29    30    1
    14     7     6    1
    15     7     1    1
    16    19    17    1
    17     8     1    1
    18     1     3    1
    19     1     4    1
    20    11     9    1
    21    17    18    1
    22    17    16    1
    23    17    20    1
    24    36    33    1
    25     3    16    1
    26     3     2    1
    27    16    14    2
    28    14    15    1
    29    14    13    1
    30     2    13    1
    31    13     9    1
    32     9    10    1
    33     9    12    1
    34    35    33    1
    35    33    37    1
    36    33    34    1
    37     4    37    1
    38     4     5    1
    39    37    38    1
    40     5    40    1
    41    38    40    2
    42    38    39    1
    43    40    41    1
    44    44    41    1
    45    41    43    1
    46    41    42    1
