@<TRIPOS>MOLECULE
5,6,7
 82 84 0 0 0
SMALL
GASTEIGER

@<TRIPOS>ATOM
      1 P           3.7851    6.1773    4.5278 P.3     1  UNL1        0.0000
      2 SI          3.1728    9.8846    2.4545 Si      1  UNL1        0.0000
      3 SI          0.3075    7.6643    6.9151 Si      1  UNL1        0.0000
      4 SI          5.8900    7.8949    7.8272 Si      1  UNL1        0.0000
      5 N           3.7659    8.9771    3.8115 N.pl3   1  UNL1        0.0000
      6 N           4.3752    7.4491    7.1062 N.pl3   1  UNL1        0.0000
      7 N           1.3359    7.3742    5.5657 N.pl3   1  UNL1        0.0000
      8 C           2.7447    4.9987    9.3704 C.ar    1  UNL1        0.0000
      9 H           2.2833    4.9973   10.3468 H       1  UNL1        0.0000
     10 C           0.8558    7.1850    4.2705 C.ar    1  UNL1        0.0000
     11 C           1.3870    8.7212    8.1085 C.3     1  UNL1        0.0000
     12 H           2.4421    8.7293    7.7928 H       1  UNL1        0.0000
     13 H           1.3327    8.3578    9.1299 H       1  UNL1        0.0000
     14 H           1.0173    9.7426    8.1212 H       1  UNL1        0.0000
     15 C          -0.1534    7.9948    3.7367 C.ar    1  UNL1        0.0000
     16 H          -0.5398    8.7916    4.3498 H       1  UNL1        0.0000
     17 C           2.3438    5.1626    4.0017 C.3     1  UNL1        0.0000
     18 H           2.6177    4.4082    3.2596 H       1  UNL1        0.0000
     19 H           1.9608    4.6729    4.9036 H       1  UNL1        0.0000
     20 C           6.0303    7.3036    9.6530 C.3     1  UNL1        0.0000
     21 H           5.3937    7.8675   10.3276 H       1  UNL1        0.0000
     22 H           7.0514    7.4224   10.0008 H       1  UNL1        0.0000
     23 H           5.7713    6.2548    9.7548 H       1  UNL1        0.0000
     24 C           5.1582    8.7821    3.8282 C.ar    1  UNL1        0.0000
     25 C           1.5008   10.7667    2.6755 C.3     1  UNL1        0.0000
     26 H           0.8379   10.2260    3.3359 H       1  UNL1        0.0000
     27 H           1.0048   10.8708    1.7161 H       1  UNL1        0.0000
     28 H           1.6499   11.7566    3.0893 H       1  UNL1        0.0000
     29 C           7.3986    9.6722    4.1217 C.ar    1  UNL1        0.0000
     30 H           8.0409   10.4980    4.3899 H       1  UNL1        0.0000
     31 C           2.8523    3.8211    8.6517 C.ar    1  UNL1        0.0000
     32 H           2.4680    2.8948    9.0502 H       1  UNL1        0.0000
     33 C          -0.1813    6.7652    1.6795 C.ar    1  UNL1        0.0000
     34 H          -0.5705    6.6024    0.6865 H       1  UNL1        0.0000
     35 C           3.4832    3.8442    7.4204 C.ar    1  UNL1        0.0000
     36 H           3.6028    2.9228    6.8668 H       1  UNL1        0.0000
     37 C           4.7248    4.9947    5.5756 C.3     1  UNL1        0.0000
     38 H           4.7526    3.9894    5.1479 H       1  UNL1        0.0000
     39 H           5.7397    5.3785    5.6930 H       1  UNL1        0.0000
     40 C           3.8472    6.2356    7.5881 C.ar    1  UNL1        0.0000
     41 C           6.3090    9.7511    7.8861 C.3     1  UNL1        0.0000
     42 H           6.4292   10.1589    6.8908 H       1  UNL1        0.0000
     43 H           7.2440    9.8891    8.4193 H       1  UNL1        0.0000
     44 H           5.5472   10.3326    8.3927 H       1  UNL1        0.0000
     45 C           2.9424    8.6921    0.9564 C.3     1  UNL1        0.0000
     46 H           3.8933    8.3117    0.5961 H       1  UNL1        0.0000
     47 H           2.4823    9.2253    0.1317 H       1  UNL1        0.0000
     48 H           2.3013    7.8490    1.1932 H       1  UNL1        0.0000
     49 C           6.0254    9.8253    4.1765 C.ar    1  UNL1        0.0000
     50 H           5.5919   10.7742    4.4571 H       1  UNL1        0.0000
     51 C           1.3183    6.1193    3.4641 C.ar    1  UNL1        0.0000
     52 C           5.7339    7.5579    3.4101 C.ar    1  UNL1        0.0000
     53 C           3.9988    5.0175    6.8901 C.ar    1  UNL1        0.0000
     54 C          -0.6599    7.7964    2.4675 C.ar    1  UNL1        0.0000
     55 H          -1.4350    8.4489    2.0937 H       1  UNL1        0.0000
     56 C           3.2364    6.1782    8.8460 C.ar    1  UNL1        0.0000
     57 H           3.1890    7.0818    9.4316 H       1  UNL1        0.0000
     58 C           4.8345    6.4118    3.0303 C.3     1  UNL1        0.0000
     59 H           5.4061    5.5174    2.7705 H       1  UNL1        0.0000
     60 H           4.1800    6.6948    2.2033 H       1  UNL1        0.0000
     61 C          -0.1762    5.9765    7.6873 C.3     1  UNL1        0.0000
     62 H          -0.9031    5.4711    7.0603 H       1  UNL1        0.0000
     63 H          -0.6258    6.1056    8.6653 H       1  UNL1        0.0000
     64 H           0.6786    5.3185    7.7972 H       1  UNL1        0.0000
     65 C           7.3790    7.0306    6.9626 C.3     1  UNL1        0.0000
     66 H           7.4106    5.9675    7.1847 H       1  UNL1        0.0000
     67 H           8.3124    7.4563    7.3169 H       1  UNL1        0.0000
     68 H           7.3581    7.1553    5.8846 H       1  UNL1        0.0000
     69 C           7.9509    8.4737    3.7042 C.ar    1  UNL1        0.0000
     70 H           9.0218    8.3534    3.6474 H       1  UNL1        0.0000
     71 C           0.8028    5.9363    2.1903 C.ar    1  UNL1        0.0000
     72 H           1.1702    5.1142    1.5908 H       1  UNL1        0.0000
     73 C          -1.3421    8.6430    6.7839 C.3     1  UNL1        0.0000
     74 H          -1.1856    9.6576    6.4265 H       1  UNL1        0.0000
     75 H          -1.8168    8.7112    7.7589 H       1  UNL1        0.0000
     76 H          -2.0466    8.1552    6.1177 H       1  UNL1        0.0000
     77 C           7.1129    7.4265    3.3565 C.ar    1  UNL1        0.0000
     78 H           7.5395    6.4902    3.0223 H       1  UNL1        0.0000
     79 C           4.4145   11.2044    1.8263 C.3     1  UNL1        0.0000
     80 H           4.4958   12.0209    2.5363 H       1  UNL1        0.0000
     81 H           4.0829   11.6207    0.8800 H       1  UNL1        0.0000
     82 H           5.4069   10.7905    1.6736 H       1  UNL1        0.0000
@<TRIPOS>BOND
     1    47    45    1
     2    46    45    1
     3    34    33    1
     4    81    79    1
     5    45    48    1
     6    45     2    1
     7    72    71    1
     8    82    79    1
     9    33    71   ar
    10    33    54   ar
    11    27    25    1
    12    79     2    1
    13    79    80    1
    14    55    54    1
    15    71    51   ar
    16    60    58    1
    17     2    25    1
    18     2     5    1
    19    54    15   ar
    20    25    28    1
    21    25    26    1
    22    59    58    1
    23    78    77    1
    24    58    52    1
    25    58     1    1
    26    18    17    1
    27    77    52   ar
    28    77    69   ar
    29    52    24   ar
    30    51    17    1
    31    51    10   ar
    32    70    69    1
    33    69    29   ar
    34    15    10   ar
    35    15    16    1
    36     5    24    1
    37    24    49   ar
    38    17     1    1
    39    17    19    1
    40    29    49   ar
    41    29    30    1
    42    49    50    1
    43    10     7    1
    44     1    37    1
    45    38    37    1
    46     7     3    1
    47    37    39    1
    48    37    53    1
    49    68    65    1
    50    76    73    1
    51    74    73    1
    52    73     3    1
    53    73    75    1
    54    36    35    1
    55    53    35   ar
    56    53    40   ar
    57    42    41    1
    58     3    61    1
    59     3    11    1
    60    65    66    1
    61    65    67    1
    62    65     4    1
    63    62    61    1
    64     6    40    1
    65     6     4    1
    66    35    31   ar
    67    40    56   ar
    68    61    64    1
    69    61    63    1
    70    12    11    1
    71     4    41    1
    72     4    20    1
    73    41    44    1
    74    41    43    1
    75    11    14    1
    76    11    13    1
    77    31    32    1
    78    31     8   ar
    79    56     8   ar
    80    56    57    1
    81     8     9    1
    82    20    23    1
    83    20    22    1
    84    20    21    1
