@<TRIPOS>MOLECULE
5,6,7
 82 84 0 0 0
SMALL
GASTEIGER

@<TRIPOS>ATOM
      1 P           6.2071    3.0970    8.9102 P.3     1  UNL1        0.0000
      2 SI          8.2426    1.3260    5.4911 Si      1  UNL1        0.0000
      3 SI          6.8318    6.9685    6.9818 Si      1  UNL1        0.0000
      4 SI          3.2406    3.4265    5.5748 Si      1  UNL1        0.0000
      5 N           6.8603    1.8310    6.3905 N.pl3   1  UNL1        0.0000
      6 N           7.2191    5.3786    7.5157 N.pl3   1  UNL1        0.0000
      7 N           4.2144    3.9911    6.8682 N.pl3   1  UNL1        0.0000
      8 C           6.7157    1.3503    9.2116 C.3     1  UNL1        0.0000
      9 H           7.7807    1.2632    8.9676 H       1  UNL1        0.0000
     10 H           6.5420    1.0291   10.2426 H       1  UNL1        0.0000
     11 C           7.1881    4.1212   10.0871 C.3     1  UNL1        0.0000
     12 H           6.6235    5.0473   10.2491 H       1  UNL1        0.0000
     13 H           7.3613    3.6191   11.0433 H       1  UNL1        0.0000
     14 C           4.5077    3.1121    9.6151 C.3     1  UNL1        0.0000
     15 H           3.9555    2.2994    9.1283 H       1  UNL1        0.0000
     16 H           4.5130    2.9552   10.6981 H       1  UNL1        0.0000
     17 C           5.8877    0.5625    8.2354 C.ar    1  UNL1        0.0000
     18 C           5.0318   -0.4343    8.6743 C.ar    1  UNL1        0.0000
     19 H           4.9623   -0.6387    9.7343 H       1  UNL1        0.0000
     20 C           4.2901   -1.1921    7.7835 C.ar    1  UNL1        0.0000
     21 H           3.6351   -1.9699    8.1447 H       1  UNL1        0.0000
     22 C           4.4173   -0.9518    6.4262 C.ar    1  UNL1        0.0000
     23 H           3.8648   -1.5503    5.7166 H       1  UNL1        0.0000
     24 C           5.2538    0.0495    5.9724 C.ar    1  UNL1        0.0000
     25 H           5.3663    0.2158    4.9108 H       1  UNL1        0.0000
     26 C           5.9882    0.8518    6.8549 C.ar    1  UNL1        0.0000
     27 C           9.6487    2.4964    6.0414 C.3     1  UNL1        0.0000
     28 H           9.5406    3.4775    5.5894 H       1  UNL1        0.0000
     29 H          10.6170    2.1093    5.7424 H       1  UNL1        0.0000
     30 H           9.6606    2.6211    7.1236 H       1  UNL1        0.0000
     31 C           8.7216   -0.4577    6.0033 C.3     1  UNL1        0.0000
     32 H           8.9707   -0.5154    7.0577 H       1  UNL1        0.0000
     33 H           9.5783   -0.8118    5.4417 H       1  UNL1        0.0000
     34 H           7.9015   -1.1452    5.8264 H       1  UNL1        0.0000
     35 C           8.0540    1.2914    3.5761 C.3     1  UNL1        0.0000
     36 H           7.3542    0.5258    3.2501 H       1  UNL1        0.0000
     37 H           9.0094    1.0726    3.1097 H       1  UNL1        0.0000
     38 H           7.7158    2.2468    3.1846 H       1  UNL1        0.0000
     39 C           8.4771    4.4227    9.3727 C.ar    1  UNL1        0.0000
     40 C           9.6986    4.1027    9.9426 C.ar    1  UNL1        0.0000
     41 H           9.7166    3.6162   10.9089 H       1  UNL1        0.0000
     42 C          10.8919    4.4152    9.3129 C.ar    1  UNL1        0.0000
     43 H          11.8330    4.1654    9.7782 H       1  UNL1        0.0000
     44 C          10.8603    5.0572    8.0864 C.ar    1  UNL1        0.0000
     45 H          11.7826    5.3122    7.5858 H       1  UNL1        0.0000
     46 C           9.6525    5.3673    7.4935 C.ar    1  UNL1        0.0000
     47 H           9.6286    5.8543    6.5301 H       1  UNL1        0.0000
     48 C           8.4313    5.0537    8.1059 C.ar    1  UNL1        0.0000
     49 C           8.2048    8.1014    6.2572 C.3     1  UNL1        0.0000
     50 H           9.0169    8.2389    6.9642 H       1  UNL1        0.0000
     51 H           7.8029    9.0837    6.0277 H       1  UNL1        0.0000
     52 H           8.6220    7.6969    5.3393 H       1  UNL1        0.0000
     53 C           6.0861    7.9267    8.4694 C.3     1  UNL1        0.0000
     54 H           5.2694    7.3798    8.9295 H       1  UNL1        0.0000
     55 H           5.7054    8.8940    8.1623 H       1  UNL1        0.0000
     56 H           6.8406    8.0998    9.2301 H       1  UNL1        0.0000
     57 C           5.5196    6.7739    5.5903 C.3     1  UNL1        0.0000
     58 H           5.9667    6.9215    4.6099 H       1  UNL1        0.0000
     59 H           4.7288    7.5094    5.7024 H       1  UNL1        0.0000
     60 H           5.0762    5.7701    5.6152 H       1  UNL1        0.0000
     61 C           3.8966    4.4346    9.2551 C.ar    1  UNL1        0.0000
     62 C           3.4530    5.2844   10.2563 C.ar    1  UNL1        0.0000
     63 H           3.5906    4.9923   11.2889 H       1  UNL1        0.0000
     64 C           2.8165    6.4786    9.9669 C.ar    1  UNL1        0.0000
     65 H           2.4781    7.1239   10.7627 H       1  UNL1        0.0000
     66 C           2.6051    6.8168    8.6418 C.ar    1  UNL1        0.0000
     67 H           2.0869    7.7310    8.3917 H       1  UNL1        0.0000
     68 C           3.0576    5.9914    7.6325 C.ar    1  UNL1        0.0000
     69 H           2.8756    6.2621    6.6055 H       1  UNL1        0.0000
     70 C           3.7436    4.7980    7.8975 C.ar    1  UNL1        0.0000
     71 C           4.5522    2.9937    4.2347 C.3     1  UNL1        0.0000
     72 H           4.8361    3.8691    3.6438 H       1  UNL1        0.0000
     73 H           4.1606    2.2576    3.5370 H       1  UNL1        0.0000
     74 H           5.4560    2.5699    4.6946 H       1  UNL1        0.0000
     75 C           2.2100    1.8991    6.1083 C.3     1  UNL1        0.0000
     76 H           2.8261    1.1441    6.5869 H       1  UNL1        0.0000
     77 H           1.7163    1.4358    5.2608 H       1  UNL1        0.0000
     78 H           1.4385    2.1922    6.8139 H       1  UNL1        0.0000
     79 C           1.9868    4.6032    4.7085 C.3     1  UNL1        0.0000
     80 H           1.2128    4.9237    5.3986 H       1  UNL1        0.0000
     81 H           1.4931    4.0921    3.8874 H       1  UNL1        0.0000
     82 H           2.4578    5.4930    4.2985 H       1  UNL1        0.0000
@<TRIPOS>BOND
     1    37    35    1
     2    38    35    1
     3    36    35    1
     4    73    71    1
     5    35     2    1
     6    72    71    1
     7    81    79    1
     8    71    74    1
     9    71     4    1
    10    82    79    1
    11    58    57    1
    12    79    80    1
    13    79     4    1
    14    25    24    1
    15    77    75    1
    16    52    49    1
    17    33    31    1
    18     2    31    1
    19     2    27    1
    20     2     5    1
    21     4    75    1
    22     4     7    1
    23    28    27    1
    24    57    60    1
    25    57    59    1
    26    57     3    1
    27    23    22    1
    28    29    27    1
    29    34    31    1
    30    24    22   ar
    31    24    26   ar
    32    31    32    1
    33    51    49    1
    34    27    30    1
    35    75    76    1
    36    75    78    1
    37    49    50    1
    38    49     3    1
    39     5    26    1
    40    22    20   ar
    41    47    46    1
    42    69    68    1
    43    26    17   ar
    44     7    70    1
    45     3     6    1
    46     3    53    1
    47    46    44   ar
    48    46    48   ar
    49     6    48    1
    50    45    44    1
    51    68    70   ar
    52    68    66   ar
    53    20    21    1
    54    20    18   ar
    55    70    61   ar
    56    44    42   ar
    57    48    39   ar
    58    55    53    1
    59    17    18   ar
    60    17     8    1
    61    67    66    1
    62    53    54    1
    63    53    56    1
    64    66    64   ar
    65    18    19    1
    66     1     8    1
    67     1    14    1
    68     1    11    1
    69     9     8    1
    70    15    14    1
    71     8    10    1
    72    61    14    1
    73    61    62   ar
    74    42    43    1
    75    42    40   ar
    76    39    40   ar
    77    39    11    1
    78    14    16    1
    79    40    41    1
    80    64    62   ar
    81    64    65    1
    82    11    12    1
    83    11    13    1
    84    62    63    1
