@<TRIPOS>MOLECULE
3,4,5
 91 93 0 0 0
SMALL
GASTEIGER

@<TRIPOS>ATOM
      1 P          12.2134    8.0488    5.8856 P.3     1  UNL1        0.0203
      2 P          13.3705   12.6051    8.0922 P.3     1  UNL1        0.0203
      3 N          13.0258   10.2986    6.9249 N.ar    1  UNL1       -0.2446
      4 N          11.4735    8.0863    7.3174 N.pl3   1  UNL1       -0.2257
      5 N          12.3910   11.8167    9.1012 N.pl3   1  UNL1       -0.2257
      6 C          10.6033    7.0543    7.7041 C.ar    1  UNL1        0.0522
      7 C          11.9060   12.4359   10.2636 C.ar    1  UNL1        0.0522
      8 C          13.0245    9.6229    5.7575 C.ar    1  UNL1        0.0799
      9 C           9.3173    7.3706    8.1419 C.ar    1  UNL1       -0.0385
     10 H           9.0322    8.4128    8.2016 H       1  UNL1        0.0637
     11 C          13.5137   11.5329    6.6842 C.ar    1  UNL1        0.0799
     12 C          10.5333   12.4316   10.5168 C.ar    1  UNL1       -0.0385
     13 H           9.8817   11.9225    9.8182 H       1  UNL1        0.0637
     14 C          12.6206   14.1962    7.4750 C.3     1  UNL1       -0.0076
     15 H          13.2022   14.4909    6.5933 H       1  UNL1        0.0359
     16 C          10.9623    5.7083    7.6699 C.ar    1  UNL1       -0.0385
     17 H          11.9672    5.4342    7.3883 H       1  UNL1        0.0637
     18 C          13.8479   11.6550    5.3311 C.ar    1  UNL1       -0.0326
     19 H          14.2528   12.5199    4.8381 H       1  UNL1        0.0640
     20 C          13.5352   10.4351    4.7391 C.ar    1  UNL1       -0.0326
     21 H          13.6515   10.1799    3.7017 H       1  UNL1        0.0640
     22 C          15.1086   13.0217    8.6494 C.3     1  UNL1       -0.0076
     23 H          15.0597   13.7492    9.4659 H       1  UNL1        0.0359
     24 C          10.0126   13.0554   11.6301 C.ar    1  UNL1       -0.0565
     25 H           8.9439   13.0370   11.7875 H       1  UNL1        0.0621
     26 C           8.4244    6.3799    8.4949 C.ar    1  UNL1       -0.0565
     27 H           7.4312    6.6560    8.8222 H       1  UNL1        0.0621
     28 C          11.0044    7.9520    4.4696 C.3     1  UNL1       -0.0076
     29 H          11.5617    8.2165    3.5632 H       1  UNL1        0.0359
     30 C           8.7694    5.0359    8.4200 C.ar    1  UNL1       -0.0447
     31 C           7.7564    3.9617    8.7327 C.3     1  UNL1       -0.0215
     32 H           6.8422    4.4498    9.0900 H       1  UNL1        0.0343
     33 C          12.7329   13.0665   11.1897 C.ar    1  UNL1       -0.0385
     34 H          13.8028   13.0442   11.0496 H       1  UNL1        0.0637
     35 C          10.8358   13.7168   12.5353 C.ar    1  UNL1       -0.0447
     36 C          12.2028   13.6968   12.2991 C.ar    1  UNL1       -0.0565
     37 H          12.8720   14.1824   12.9962 H       1  UNL1        0.0621
     38 C          15.7051   11.7146    9.1550 C.3     1  UNL1       -0.0573
     39 H          15.0868   11.2980    9.9489 H       1  UNL1        0.0236
     40 H          16.7141   11.8688    9.5345 H       1  UNL1        0.0236
     41 H          15.7444   10.9856    8.3460 H       1  UNL1        0.0236
     42 C          10.0599    4.7222    8.0144 C.ar    1  UNL1       -0.0565
     43 H          10.3755    3.6904    7.9637 H       1  UNL1        0.0621
     44 C          13.5090    6.7356    5.5667 C.3     1  UNL1       -0.0076
     45 H          13.0312    5.7507    5.5733 H       1  UNL1        0.0359
     46 C           9.9413    9.0127    4.7309 C.3     1  UNL1       -0.0573
     47 H           9.3693    8.7563    5.6214 H       1  UNL1        0.0236
     48 H           9.2560    9.0895    3.8881 H       1  UNL1        0.0236
     49 H          10.4069    9.9865    4.8884 H       1  UNL1        0.0236
     50 C          10.2692   14.4529   13.7249 C.3     1  UNL1       -0.0215
     51 H          11.1059   14.8829   14.2878 H       1  UNL1        0.0343
     52 C          11.1943   13.8706    7.0469 C.3     1  UNL1       -0.0573
     53 H          11.1892   13.0317    6.3498 H       1  UNL1        0.0236
     54 H          10.7314   14.7276    6.5600 H       1  UNL1        0.0236
     55 H          10.5963   13.6001    7.9158 H       1  UNL1        0.0236
     56 C          12.6563   15.3120    8.5117 C.3     1  UNL1       -0.0573
     57 H          12.1228   15.0134    9.4124 H       1  UNL1        0.0236
     58 H          12.1785   16.2053    8.1106 H       1  UNL1        0.0236
     59 H          13.6783   15.5682    8.7842 H       1  UNL1        0.0236
     60 C           7.4119    3.1809    7.4610 C.3     1  UNL1       -0.0587
     61 H           7.0483    3.8556    6.6886 H       1  UNL1        0.0235
     62 H           6.6407    2.4412    7.6662 H       1  UNL1        0.0235
     63 H           8.2905    2.6660    7.0795 H       1  UNL1        0.0235
     64 C          14.4956    6.8422    6.7226 C.3     1  UNL1       -0.0573
     65 H          14.9785    7.8190    6.7104 H       1  UNL1        0.0236
     66 H          15.2635    6.0734    6.6514 H       1  UNL1        0.0236
     67 H          13.9760    6.7397    7.6745 H       1  UNL1        0.0236
     68 C          10.3905    6.5664    4.3124 C.3     1  UNL1       -0.0573
     69 H          11.1497    5.8188    4.0907 H       1  UNL1        0.0236
     70 H           9.6700    6.5707    3.4951 H       1  UNL1        0.0236
     71 H           9.8726    6.2729    5.2238 H       1  UNL1        0.0236
     72 C          14.1914    6.9551    4.2230 C.3     1  UNL1       -0.0573
     73 H          13.4970    6.8251    3.3957 H       1  UNL1        0.0236
     74 H          15.0023    6.2385    4.0999 H       1  UNL1        0.0236
     75 H          14.6128    7.9570    4.1735 H       1  UNL1        0.0236
     76 C          15.9221   13.6050    7.5016 C.3     1  UNL1       -0.0573
     77 H          15.9243   12.9207    6.6555 H       1  UNL1        0.0236
     78 H          16.9528   13.7569    7.8195 H       1  UNL1        0.0236
     79 H          15.5240   14.5638    7.1759 H       1  UNL1        0.0236
     80 C           8.2466    3.0133    9.8268 C.3     1  UNL1       -0.0587
     81 H           9.1449    2.4890    9.5115 H       1  UNL1        0.0235
     82 H           7.4802    2.2751   10.0555 H       1  UNL1        0.0235
     83 H           8.4751    3.5674   10.7333 H       1  UNL1        0.0235
     84 C           9.3668   15.6008   13.2635 C.3     1  UNL1       -0.0587
     85 H           9.9139   16.2718   12.6042 H       1  UNL1        0.0235
     86 H           9.0108   16.1707   14.1193 H       1  UNL1        0.0235
     87 H           8.5042   15.2181   12.7232 H       1  UNL1        0.0235
     88 C           9.5054   13.5107   14.6564 C.3     1  UNL1       -0.0587
     89 H           8.6677   13.0499   14.1393 H       1  UNL1        0.0235
     90 H           9.1210   14.0587   15.5146 H       1  UNL1        0.0235
     91 H          10.1626   12.7231   15.0168 H       1  UNL1        0.0235
@<TRIPOS>BOND
     1    73    72    1
     2    70    68    1
     3    29    28    1
     4    21    20    1
     5    48    46    1
     6    69    68    1
     7    74    72    1
     8    75    72    1
     9    72    44    1
    10    68    28    1
    11    68    71    1
    12    28    46    1
    13    28     1    1
    14    46    49    1
    15    46    47    1
    16    20    18   ar
    17    20     8   ar
    18    19    18    1
    19    18    11   ar
    20    44    45    1
    21    44     1    1
    22    44    64    1
    23     8     1    1
    24     8     3   ar
    25     1     4    1
    26    53    52    1
    27    54    52    1
    28    15    14    1
    29    66    64    1
    30    77    76    1
    31    11     3   ar
    32    11     2    1
    33    61    60    1
    34    65    64    1
    35    64    67    1
    36    52    14    1
    37    52    55    1
    38    63    60    1
    39    79    76    1
    40     4     6    1
    41    17    16    1
    42    60    62    1
    43    60    31    1
    44    14     2    1
    45    14    56    1
    46    76    78    1
    47    76    22    1
    48    16     6   ar
    49    16    42   ar
    50     6     9   ar
    51    43    42    1
    52    42    30   ar
    53     2    22    1
    54     2     5    1
    55    58    56    1
    56     9    10    1
    57     9    26   ar
    58    41    38    1
    59    30    26   ar
    60    30    31    1
    61    26    27    1
    62    56    59    1
    63    56    57    1
    64    22    38    1
    65    22    23    1
    66    31    32    1
    67    31    80    1
    68     5     7    1
    69    38    40    1
    70    38    39    1
    71    81    80    1
    72    13    12    1
    73    80    82    1
    74    80    83    1
    75     7    12   ar
    76     7    33   ar
    77    12    24   ar
    78    34    33    1
    79    33    36   ar
    80    24    25    1
    81    24    35   ar
    82    36    35   ar
    83    36    37    1
    84    35    50    1
    85    85    84    1
    86    87    84    1
    87    84    50    1
    88    84    86    1
    89    50    51    1
    90    50    88    1
    91    89    88    1
    92    88    91    1
    93    88    90    1
