@<TRIPOS>MOLECULE
3,4,5
 49 50 0 0 0
SMALL
GASTEIGER

@<TRIPOS>ATOM
      1 SI          2.7864    2.6211   -0.6057 Si      1  UNL1        0.0000
      2 SI          9.0995    3.5983    1.0183 Si      1  UNL1        0.0000
      3 N           3.8511    2.2016    0.7190 N.pl3   1  UNL1        0.0000
      4 N           7.7421    2.6764    1.6290 N.pl3   1  UNL1        0.0000
      5 N           5.6075    1.5488    2.4485 N.pl3   1  UNL1        0.0000
      6 C           4.3147    1.3336    2.8725 C.ar    1  UNL1        0.0000
      7 C           3.3479    1.6476    1.8749 C.ar    1  UNL1        0.0000
      8 C           3.8989    0.9329    4.1370 C.ar    1  UNL1        0.0000
      9 H           4.6238    0.8078    4.9260 H       1  UNL1        0.0000
     10 C           2.5529    0.7342    4.4010 C.ar    1  UNL1        0.0000
     11 H           2.2435    0.4178    5.3857 H       1  UNL1        0.0000
     12 C           2.0090    1.4037    2.1602 C.ar    1  UNL1        0.0000
     13 H           1.2623    1.5982    1.4087 H       1  UNL1        0.0000
     14 C           1.6162    0.9408    3.4061 C.ar    1  UNL1        0.0000
     15 H           0.5686    0.7657    3.6013 H       1  UNL1        0.0000
     16 C           9.1358    1.3842    3.2076 C.ar    1  UNL1        0.0000
     17 H          10.0336    1.9125    2.9340 H       1  UNL1        0.0000
     18 C           6.7490    1.0579    3.0430 C.ar    1  UNL1        0.0000
     19 C           7.9264    1.7385    2.6200 C.ar    1  UNL1        0.0000
     20 C           9.2090    0.3438    4.1204 C.ar    1  UNL1        0.0000
     21 H          10.1628    0.0859    4.5562 H       1  UNL1        0.0000
     22 C           8.0770   -0.3785    4.4475 C.ar    1  UNL1        0.0000
     23 H           8.1411   -1.2185    5.1225 H       1  UNL1        0.0000
     24 C           6.8498   -0.0248    3.9091 C.ar    1  UNL1        0.0000
     25 H           5.9749   -0.6129    4.1377 H       1  UNL1        0.0000
     26 C           3.8449    3.3390   -2.0261 C.3     1  UNL1        0.0000
     27 H           4.5386    4.1051   -1.6883 H       1  UNL1        0.0000
     28 H           3.1902    3.7965   -2.7607 H       1  UNL1        0.0000
     29 H           4.4105    2.5694   -2.5385 H       1  UNL1        0.0000
     30 C           1.8834    1.0945   -1.3317 C.3     1  UNL1        0.0000
     31 H           1.0507    0.7706   -0.7174 H       1  UNL1        0.0000
     32 H           2.5600    0.2508   -1.4292 H       1  UNL1        0.0000
     33 H           1.4929    1.3211   -2.3186 H       1  UNL1        0.0000
     34 C           1.5528    4.0042   -0.1059 C.3     1  UNL1        0.0000
     35 H           1.1994    3.8928    0.9135 H       1  UNL1        0.0000
     36 H           0.6860    4.0022   -0.7592 H       1  UNL1        0.0000
     37 H           2.0167    4.9830   -0.1840 H       1  UNL1        0.0000
     38 C          10.3780    2.4617    0.1471 C.3     1  UNL1        0.0000
     39 H          10.0999    2.2854   -0.8878 H       1  UNL1        0.0000
     40 H          10.4602    1.4944    0.6319 H       1  UNL1        0.0000
     41 H          11.3633    2.9173    0.1466 H       1  UNL1        0.0000
     42 C           9.9225    4.6714    2.3775 C.3     1  UNL1        0.0000
     43 H           9.1947    4.9950    3.1156 H       1  UNL1        0.0000
     44 H          10.3709    5.5587    1.9420 H       1  UNL1        0.0000
     45 H          10.7051    4.1387    2.9068 H       1  UNL1        0.0000
     46 C           8.4520    4.8090   -0.3112 C.3     1  UNL1        0.0000
     47 H           7.9077    5.6373    0.1275 H       1  UNL1        0.0000
     48 H           7.8079    4.3261   -1.0421 H       1  UNL1        0.0000
     49 H           9.2948    5.2297   -0.8500 H       1  UNL1        0.0000
@<TRIPOS>BOND
     1    28    26    1
     2    29    26    1
     3    33    30    1
     4    26    27    1
     5    26     1    1
     6    32    30    1
     7    30    31    1
     8    30     1    1
     9    48    46    1
    10    39    38    1
    11    49    46    1
    12    36    34    1
    13     1    34    1
    14     1     3    1
    15    46    47    1
    16    46     2    1
    17    37    34    1
    18    34    35    1
    19    41    38    1
    20    38    40    1
    21    38     2    1
    22     3     7    1
    23     2     4    1
    24     2    42    1
    25    13    12    1
    26     4    19    1
    27     7    12   ar
    28     7     6   ar
    29    44    42    1
    30    12    14   ar
    31    42    45    1
    32    42    43    1
    33     5     6    1
    34     5    18    1
    35    19    18   ar
    36    19    16   ar
    37     6     8   ar
    38    17    16    1
    39    18    24   ar
    40    16    20   ar
    41    14    15    1
    42    14    10   ar
    43    24    25    1
    44    24    22   ar
    45    20    22   ar
    46    20    21    1
    47     8    10   ar
    48     8     9    1
    49    10    11    1
    50    22    23    1
