@<TRIPOS>MOLECULE
2,3,4
 41 41 0 0 0
SMALL
GASTEIGER

@<TRIPOS>ATOM
      1 SI          5.9527   -2.2270    8.0798 Si      1  UNL1        0.0000
      2 N           3.3006    1.6539    9.7867 N.3     1  UNL1        0.0000
      3 N           5.8531    1.3888    9.4707 N.3     1  UNL1        0.0000
      4 N           5.7358   -0.7225    8.9258 N.3     1  UNL1        0.0000
      5 C           2.4046    2.4823   10.5503 C.3     1  UNL1        0.0000
      6 C           3.4832    2.1231    8.4358 C.3     1  UNL1        0.0000
      7 C           4.6105    3.1792    8.3043 C.3     1  UNL1        0.0000
      8 C           5.8510    2.7934    9.1493 C.3     1  UNL1        0.0000
      9 C           6.1617    0.4682    8.5757 C.3     1  UNL1        0.0000
     10 C           6.9088    0.7676    7.3270 C.ar    1  UNL1        0.0000
     11 C           6.2530    0.8121    6.1023 C.ar    1  UNL1        0.0000
     12 C           6.9610    1.0920    4.9466 C.ar    1  UNL1        0.0000
     13 C           8.3239    1.3310    5.0057 C.ar    1  UNL1        0.0000
     14 C           8.9793    1.2958    6.2253 C.ar    1  UNL1        0.0000
     15 C           8.2754    1.0200    7.3841 C.ar    1  UNL1        0.0000
     16 C           4.9445   -2.3411    6.4561 C.3     1  UNL1        0.0000
     17 C           7.8120   -2.4603    7.6787 C.3     1  UNL1        0.0000
     18 C           5.3860   -3.6078    9.2651 C.3     1  UNL1        0.0000
     19 H           2.8681    3.4465   10.8185 H       1  UNL1        0.0000
     20 H           1.4950    2.7005    9.9701 H       1  UNL1        0.0000
     21 H           2.1016    1.9746   11.4669 H       1  UNL1        0.0000
     22 H           2.5495    2.5641    8.0480 H       1  UNL1        0.0000
     23 H           3.7247    1.2556    7.7965 H       1  UNL1        0.0000
     24 H           4.2404    4.1503    8.6361 H       1  UNL1        0.0000
     25 H           4.8838    3.2617    7.2503 H       1  UNL1        0.0000
     26 H           5.8316    3.3357   10.1012 H       1  UNL1        0.0000
     27 H           6.7665    3.0740    8.6086 H       1  UNL1        0.0000
     28 H           5.1886    0.6270    6.0615 H       1  UNL1        0.0000
     29 H           6.4475    1.1235    3.9969 H       1  UNL1        0.0000
     30 H           8.8747    1.5458    4.1021 H       1  UNL1        0.0000
     31 H          10.0419    1.4835    6.2740 H       1  UNL1        0.0000
     32 H           8.7812    0.9875    8.3385 H       1  UNL1        0.0000
     33 H           3.9467   -1.9349    6.5988 H       1  UNL1        0.0000
     34 H           5.4199   -1.8118    5.6351 H       1  UNL1        0.0000
     35 H           4.8336   -3.3779    6.1554 H       1  UNL1        0.0000
     36 H           8.1312   -1.8215    6.8614 H       1  UNL1        0.0000
     37 H           8.4394   -2.2368    8.5361 H       1  UNL1        0.0000
     38 H           8.0055   -3.4868    7.3882 H       1  UNL1        0.0000
     39 H           5.9541   -3.6266   10.1902 H       1  UNL1        0.0000
     40 H           4.3363   -3.4831    9.5116 H       1  UNL1        0.0000
     41 H           5.5012   -4.5771    8.7911 H       1  UNL1        0.0000
@<TRIPOS>BOND
     1    29    12    1
     2    30    13    1
     3    12    13   ar
     4    12    11   ar
     5    13    14   ar
     6    34    16    1
     7    28    11    1
     8    11    10   ar
     9    35    16    1
    10    14    31    1
    11    14    15   ar
    12    16    33    1
    13    16     1    1
    14    36    17    1
    15    25     7    1
    16    10    15   ar
    17    10     9    1
    18    15    32    1
    19    38    17    1
    20    17     1    1
    21    17    37    1
    22    23     6    1
    23    22     6    1
    24     1     4    1
    25     1    18    1
    26     7     6    1
    27     7    24    1
    28     7     8    1
    29     6     2    1
    30     9     4    1
    31     9     3    1
    32    27     8    1
    33    41    18    1
    34     8     3    1
    35     8    26    1
    36    18    40    1
    37    18    39    1
    38     2     5    1
    39    20     5    1
    40     5    19    1
    41     5    21    1
