@<TRIPOS>MOLECULE
2,3,4
 41 41 0 0 0
SMALL
GASTEIGER

@<TRIPOS>ATOM
      1 SI          4.2396   -0.3002    3.6327 Si      1  UNL1        0.0000
      2 N           3.5765    1.1224    2.8829 N.3     1  UNL1        0.0000
      3 N           3.2516    3.1332    2.0769 N.3     1  UNL1        0.0000
      4 N           2.0329    2.4604   -0.2283 N.3     1  UNL1        0.0000
      5 C           4.1114    2.2957    2.6476 C.3     1  UNL1        0.0000
      6 C           5.5404    2.6067    2.8997 C.ar    1  UNL1        0.0000
      7 C           5.9530    3.2571    4.0558 C.ar    1  UNL1        0.0000
      8 C           7.3004    3.4969    4.2661 C.ar    1  UNL1        0.0000
      9 C           8.2343    3.0957    3.3255 C.ar    1  UNL1        0.0000
     10 C           7.8234    2.4506    2.1699 C.ar    1  UNL1        0.0000
     11 C           6.4794    2.2035    1.9546 C.ar    1  UNL1        0.0000
     12 C           2.8054   -1.5426    3.4585 C.3     1  UNL1        0.0000
     13 C           5.8203   -0.9691    2.7853 C.3     1  UNL1        0.0000
     14 C           4.6286    0.1091    5.4593 C.3     1  UNL1        0.0000
     15 C           3.7015    4.3526    1.4494 C.3     1  UNL1        0.0000
     16 C           3.8584    4.1113   -0.0580 C.3     1  UNL1        0.0000
     17 C           2.5242    3.7297   -0.7049 C.3     1  UNL1        0.0000
     18 C           1.0216    1.9092   -1.1035 C.3     1  UNL1        0.0000
     19 H           5.2179    3.5674    4.7840 H       1  UNL1        0.0000
     20 H           7.6212    3.9986    5.1669 H       1  UNL1        0.0000
     21 H           9.2840    3.2849    3.4934 H       1  UNL1        0.0000
     22 H           8.5515    2.1364    1.4371 H       1  UNL1        0.0000
     23 H           6.1428    1.6879    1.0617 H       1  UNL1        0.0000
     24 H           2.5750   -1.7125    2.4070 H       1  UNL1        0.0000
     25 H           3.0474   -2.5013    3.9051 H       1  UNL1        0.0000
     26 H           1.9014   -1.1708    3.9353 H       1  UNL1        0.0000
     27 H           5.6872   -1.0304    1.7081 H       1  UNL1        0.0000
     28 H           6.0462   -1.9677    3.1454 H       1  UNL1        0.0000
     29 H           6.6868   -0.3447    2.9851 H       1  UNL1        0.0000
     30 H           5.4872    0.7685    5.5447 H       1  UNL1        0.0000
     31 H           4.8545   -0.7987    6.0072 H       1  UNL1        0.0000
     32 H           3.7879    0.5908    5.9485 H       1  UNL1        0.0000
     33 H           2.9475    5.1308    1.6196 H       1  UNL1        0.0000
     34 H           4.6593    4.6840    1.8780 H       1  UNL1        0.0000
     35 H           4.2476    5.0131   -0.5348 H       1  UNL1        0.0000
     36 H           4.5705    3.2890   -0.2152 H       1  UNL1        0.0000
     37 H           1.7831    4.5268   -0.5090 H       1  UNL1        0.0000
     38 H           2.6728    3.6784   -1.7978 H       1  UNL1        0.0000
     39 H           0.7380    0.9011   -0.7759 H       1  UNL1        0.0000
     40 H           0.1203    2.5427   -1.1117 H       1  UNL1        0.0000
     41 H           1.4013    1.8434   -2.1365 H       1  UNL1        0.0000
@<TRIPOS>BOND
     1    41    18    1
     2    38    17    1
     3    40    18    1
     4    18    39    1
     5    18     4    1
     6    17    37    1
     7    17     4    1
     8    17    16    1
     9    35    16    1
    10    36    16    1
    11    16    15    1
    12    23    11    1
    13    22    10    1
    14    15    33    1
    15    15    34    1
    16    15     3    1
    17    27    13    1
    18    11    10   ar
    19    11     6   ar
    20     3     5    1
    21    10     9   ar
    22    24    12    1
    23     5     2    1
    24     5     6    1
    25    13    29    1
    26    13    28    1
    27    13     1    1
    28     2     1    1
    29     6     7   ar
    30     9    21    1
    31     9     8   ar
    32    12     1    1
    33    12    25    1
    34    12    26    1
    35     1    14    1
    36     7     8   ar
    37     7    19    1
    38     8    20    1
    39    14    30    1
    40    14    32    1
    41    14    31    1
