@<TRIPOS>MOLECULE
19,20,21
 67 69 0 0 0
SMALL
GASTEIGER

@<TRIPOS>ATOM
      1 C           8.4552    7.7714   12.4397 C.3     1  UNL1       -0.0228
      2 H           7.7248    7.9381   11.6478 H       1  UNL1        0.0291
      3 H           9.4361    7.6687   11.9723 H       1  UNL1        0.0291
      4 H           8.4675    8.6460   13.0861 H       1  UNL1        0.0291
      5 C           8.1120    6.5395   13.2317 C.2     1  UNL1        0.0510
      6 C           7.8577    5.3067   12.6397 C.2     1  UNL1        0.0720
      7 C           7.8940    4.9959   11.2736 C.2     1  UNL1       -0.0371
      8 H           8.2461    5.7388   10.5737 H       1  UNL1        0.0637
      9 C           7.4630    3.7681   10.8275 C.2     1  UNL1       -0.0583
     10 H           7.4806    3.5240    9.7768 H       1  UNL1        0.0619
     11 C           6.9587    2.8399   11.7530 C.2     1  UNL1       -0.0405
     12 H           6.5717    1.8943   11.4072 H       1  UNL1        0.0634
     13 C           6.9575    3.1488   13.0980 C.2     1  UNL1        0.0586
     14 C           6.4220    2.3167   14.1361 C.3     1  UNL1        0.1181
     15 C           5.8358    0.9683   13.8307 C.3     1  UNL1       -0.0340
     16 H           6.6026    0.3059   13.4297 H       1  UNL1        0.0255
     17 H           5.0445    1.0575   13.0874 H       1  UNL1        0.0255
     18 H           5.4199    0.5200   14.7302 H       1  UNL1        0.0255
     19 N           7.9854    6.5441   14.5871 N.pl3   1  UNL1       -0.2171
     20 N           7.4626    4.3348   13.5742 N.pl3   1  UNL1       -0.2154
     21 N           6.4587    2.8474   15.3365 N.pl3   1  UNL1       -0.2352
     22 C           7.7586    7.7781   15.2237 C.ar    1  UNL1        0.0597
     23 C           8.7830    8.4602   15.8920 C.ar    1  UNL1       -0.0244
     24 C           8.4926    9.6565   16.5351 C.ar    1  UNL1       -0.0567
     25 H           9.2802   10.1759   17.0626 H       1  UNL1        0.0621
     26 C           7.2193   10.1891   16.5011 C.ar    1  UNL1       -0.0611
     27 H           7.0066   11.1208   17.0040 H       1  UNL1        0.0618
     28 C           6.2148    9.5328   15.8092 C.ar    1  UNL1       -0.0567
     29 H           5.2299    9.9715   15.7751 H       1  UNL1        0.0621
     30 C           6.4620    8.3323   15.1639 C.ar    1  UNL1       -0.0244
     31 C          10.1966    7.9440   15.8825 C.3     1  UNL1       -0.0287
     32 H          10.5943    7.9665   16.8999 H       1  UNL1        0.0311
     33 H          10.2002    6.9120   15.5221 H       1  UNL1        0.0311
     34 C          11.1009    8.7945   14.9876 C.3     1  UNL1       -0.0612
     35 H          11.0950    9.8342   15.3082 H       1  UNL1        0.0233
     36 H          10.7658    8.7528   13.9549 H       1  UNL1        0.0233
     37 H          12.1241    8.4272   15.0313 H       1  UNL1        0.0233
     38 C           5.3897    7.6044   14.3865 C.3     1  UNL1       -0.0287
     39 H           5.6132    6.5233   14.4081 H       1  UNL1        0.0311
     40 H           5.4393    7.9243   13.3395 H       1  UNL1        0.0311
     41 C           3.9712    7.8200   14.9066 C.3     1  UNL1       -0.0612
     42 H           3.9179    7.5939   15.9693 H       1  UNL1        0.0233
     43 H           3.2841    7.1616   14.3787 H       1  UNL1        0.0233
     44 H           3.6374    8.8429   14.7500 H       1  UNL1        0.0233
     45 C           5.8676    2.1748   16.4227 C.ar    1  UNL1        0.0552
     46 C           6.5850    1.2077   17.1449 C.ar    1  UNL1       -0.0248
     47 C           5.9897    0.6232   18.2531 C.ar    1  UNL1       -0.0568
     48 H           6.5289   -0.1192   18.8202 H       1  UNL1        0.0621
     49 C           4.7070    0.9696   18.6348 C.ar    1  UNL1       -0.0611
     50 H           4.2597    0.5098   19.5033 H       1  UNL1        0.0618
     51 C           3.9850    1.8803   17.8861 C.ar    1  UNL1       -0.0568
     52 H           2.9693    2.1082   18.1688 H       1  UNL1        0.0621
     53 C           4.5418    2.4863   16.7701 C.ar    1  UNL1       -0.0248
     54 C           7.9497    0.7816   16.6652 C.3     1  UNL1       -0.0287
     55 H           7.8272   -0.0942   16.0170 H       1  UNL1        0.0311
     56 H           8.3683    1.5839   16.0502 H       1  UNL1        0.0311
     57 C           8.9394    0.4341   17.7740 C.3     1  UNL1       -0.0612
     58 H           8.9854    1.2326   18.5098 H       1  UNL1        0.0233
     59 H           9.9319    0.2998   17.3485 H       1  UNL1        0.0233
     60 H           8.6652   -0.4878   18.2811 H       1  UNL1        0.0233
     61 C           3.7281    3.4095   15.8928 C.3     1  UNL1       -0.0287
     62 H           4.4092    4.0168   15.2820 H       1  UNL1        0.0311
     63 H           3.1374    2.7939   15.2043 H       1  UNL1        0.0311
     64 C           2.7871    4.3377   16.6579 C.3     1  UNL1       -0.0612
     65 H           1.9846    3.7844   17.1389 H       1  UNL1        0.0233
     66 H           2.3359    5.0511   15.9717 H       1  UNL1        0.0233
     67 H           3.3317    4.8902   17.4202 H       1  UNL1        0.0233
@<TRIPOS>BOND
     1    10     9    1
     2     8     7    1
     3     9     7    2
     4     9    11    1
     5     7     6    1
     6    12    11    1
     7     2     1    1
     8    11    13    2
     9     3     1    1
    10     1     4    1
    11     1     5    1
    12     6     5    2
    13     6    20    1
    14    17    15    1
    15    13    20    1
    16    13    14    1
    17     5    19    1
    18    40    38    1
    19    16    15    1
    20    15    14    1
    21    15    18    1
    22    36    34    1
    23    14    21    1
    24    43    41    1
    25    38    39    1
    26    38    41    1
    27    38    30    1
    28    19    22    1
    29    44    41    1
    30    41    42    1
    31    34    37    1
    32    34    35    1
    33    34    31    1
    34    30    22   ar
    35    30    28   ar
    36    63    61    1
    37    22    23   ar
    38    62    61    1
    39    21    45    1
    40    33    31    1
    41    29    28    1
    42    28    26   ar
    43    31    23    1
    44    31    32    1
    45    23    24   ar
    46    61    64    1
    47    61    53    1
    48    66    64    1
    49    55    54    1
    50    56    54    1
    51    45    53   ar
    52    45    46   ar
    53    26    24   ar
    54    26    27    1
    55    24    25    1
    56    64    65    1
    57    64    67    1
    58    54    46    1
    59    54    57    1
    60    53    51   ar
    61    46    47   ar
    62    59    57    1
    63    57    60    1
    64    57    58    1
    65    51    52    1
    66    51    49   ar
    67    47    49   ar
    68    47    48    1
    69    49    50    1
