@<TRIPOS>MOLECULE
1,2,3
 95 97 0 0 0
SMALL
GASTEIGER

@<TRIPOS>ATOM
      1 N           9.3394    6.4195   18.1731 N.pl3   1  UNL1        0.0000
      2 N           8.2156    6.5510   15.8636 N.pl3   1  UNL1        0.0000
      3 N           9.7747    7.7678   14.4761 N.pl3   1  UNL1        0.0000
      4 SI         10.0710    4.4720   13.6944 Si      1  UNL1        0.0000
      5 C           7.4670    5.1695   19.2451 C.3     1  UNL1        0.0000
      6 H           8.1306    5.0984   20.1030 H       1  UNL1        0.0000
      7 H           7.1708    4.1650   18.9435 H       1  UNL1        0.0000
      8 H           6.5671    5.7088   19.5402 H       1  UNL1        0.0000
      9 C           8.1456    5.8720   18.1017 C.2     1  UNL1        0.0000
     10 C           7.4826    5.9460   16.8399 C.2     1  UNL1        0.0000
     11 C           6.1925    5.4641   16.5682 C.2     1  UNL1        0.0000
     12 H           5.6025    5.0273   17.3574 H       1  UNL1        0.0000
     13 C           5.6915    5.5586   15.2919 C.2     1  UNL1        0.0000
     14 H           4.6973    5.2058   15.0630 H       1  UNL1        0.0000
     15 C           6.4952    6.0962   14.2807 C.2     1  UNL1        0.0000
     16 H           6.1410    6.1314   13.2636 H       1  UNL1        0.0000
     17 C           7.7386    6.5857   14.6134 C.2     1  UNL1        0.0000
     18 C           8.7454    7.1640   13.6435 C.3     1  UNL1        0.0000
     19 C           8.0933    8.1464   12.6533 C.3     1  UNL1        0.0000
     20 H           7.5336    8.9244   13.1625 H       1  UNL1        0.0000
     21 H           7.4155    7.6175   11.9876 H       1  UNL1        0.0000
     22 H           8.8646    8.6213   12.0515 H       1  UNL1        0.0000
     23 C           9.2848    5.9746   12.8063 C.3     1  UNL1        0.0000
     24 H          10.0031    6.3765   12.0928 H       1  UNL1        0.0000
     25 H           8.4499    5.5967   12.2118 H       1  UNL1        0.0000
     26 C          10.6657    3.3378   12.2711 C.3     1  UNL1        0.0000
     27 H          11.1598    2.4530   12.6586 H       1  UNL1        0.0000
     28 H          11.3715    3.8458   11.6218 H       1  UNL1        0.0000
     29 H           9.8379    3.0030   11.6539 H       1  UNL1        0.0000
     30 C           8.8303    3.4669   14.7461 C.3     1  UNL1        0.0000
     31 H           7.8429    3.4366   14.2956 H       1  UNL1        0.0000
     32 H           8.7237    3.8870   15.7411 H       1  UNL1        0.0000
     33 H           9.1677    2.4408   14.8597 H       1  UNL1        0.0000
     34 C          11.5603    4.9009   14.7909 C.3     1  UNL1        0.0000
     35 H          11.2720    5.6506   15.5313 H       1  UNL1        0.0000
     36 H          12.3951    5.2985   14.2237 H       1  UNL1        0.0000
     37 H          11.9169    4.0203   15.3159 H       1  UNL1        0.0000
     38 C           9.7232    7.2566   20.4427 C.ar    1  UNL1        0.0000
     39 C          10.4481    7.1811   21.6234 C.ar    1  UNL1        0.0000
     40 H          10.2218    7.8621   22.4301 H       1  UNL1        0.0000
     41 C          11.4460    6.2421   21.7930 C.ar    1  UNL1        0.0000
     42 H          11.9945    6.1939   22.7219 H       1  UNL1        0.0000
     43 C          11.7293    5.3577   20.7705 C.ar    1  UNL1        0.0000
     44 H          12.4946    4.6116   20.9164 H       1  UNL1        0.0000
     45 C          11.0366    5.4053   19.5712 C.ar    1  UNL1        0.0000
     46 C          10.0298    6.3697   19.3987 C.ar    1  UNL1        0.0000
     47 C           8.6217    8.2839   20.3173 C.3     1  UNL1        0.0000
     48 H           8.1427    8.1577   19.3425 H       1  UNL1        0.0000
     49 C           7.5597    8.1005   21.4063 C.3     1  UNL1        0.0000
     50 H           7.1860    7.0799   21.4238 H       1  UNL1        0.0000
     51 H           6.7226    8.7722   21.2263 H       1  UNL1        0.0000
     52 H           7.9685    8.3267   22.3879 H       1  UNL1        0.0000
     53 C           9.1962    9.6997   20.3872 C.3     1  UNL1        0.0000
     54 H           9.6473    9.8852   21.3592 H       1  UNL1        0.0000
     55 H           8.4082   10.4338   20.2321 H       1  UNL1        0.0000
     56 H           9.9567    9.8319   19.6239 H       1  UNL1        0.0000
     57 C          11.3050    4.3830   18.4906 C.3     1  UNL1        0.0000
     58 H          10.8654    4.7607   17.5601 H       1  UNL1        0.0000
     59 C          12.7990    4.1506   18.2626 C.3     1  UNL1        0.0000
     60 H          13.3145    5.0938   18.0981 H       1  UNL1        0.0000
     61 H          12.9472    3.5200   17.3886 H       1  UNL1        0.0000
     62 H          13.2561    3.6507   19.1128 H       1  UNL1        0.0000
     63 C          10.6169    3.0597   18.8399 C.3     1  UNL1        0.0000
     64 H          11.0004    2.6666   19.7795 H       1  UNL1        0.0000
     65 H          10.7967    2.3252   18.0576 H       1  UNL1        0.0000
     66 H           9.5438    3.1988   18.9398 H       1  UNL1        0.0000
     67 C           9.4297   10.1818   14.7257 C.ar    1  UNL1        0.0000
     68 C           9.8882   11.4710   14.5078 C.ar    1  UNL1        0.0000
     69 H           9.3341   12.3115   14.8972 H       1  UNL1        0.0000
     70 C          11.0486   11.7061   13.7938 C.ar    1  UNL1        0.0000
     71 H          11.3884   12.7180   13.6280 H       1  UNL1        0.0000
     72 C          11.7686   10.6377   13.2972 C.ar    1  UNL1        0.0000
     73 H          12.6708   10.8250   12.7339 H       1  UNL1        0.0000
     74 C          11.3503    9.3337   13.5055 C.ar    1  UNL1        0.0000
     75 C          10.1676    9.0843   14.2303 C.ar    1  UNL1        0.0000
     76 C           8.1753    9.9523   15.5387 C.3     1  UNL1        0.0000
     77 H           7.7808    8.9626   15.2954 H       1  UNL1        0.0000
     78 C           8.5226    9.9442   17.0281 C.3     1  UNL1        0.0000
     79 H           9.3249    9.2177   17.2295 H       1  UNL1        0.0000
     80 H           7.6432    9.6868   17.6151 H       1  UNL1        0.0000
     81 H           8.8702   10.9263   17.3379 H       1  UNL1        0.0000
     82 C           7.0747   10.9777   15.2560 C.3     1  UNL1        0.0000
     83 H           7.3182   11.9479   15.6816 H       1  UNL1        0.0000
     84 H           6.1381   10.6451   15.7003 H       1  UNL1        0.0000
     85 H           6.9223   11.1015   14.1857 H       1  UNL1        0.0000
     86 C          12.1354    8.1883   12.9128 C.3     1  UNL1        0.0000
     87 H          11.6726    7.2670   13.2727 H       1  UNL1        0.0000
     88 C          12.0609    8.2211   11.3832 C.3     1  UNL1        0.0000
     89 H          11.0273    8.2368   11.0433 H       1  UNL1        0.0000
     90 H          12.5494    7.3442   10.9618 H       1  UNL1        0.0000
     91 H          12.5551    9.1083   10.9930 H       1  UNL1        0.0000
     92 C          13.5960    8.1961   13.3640 C.3     1  UNL1        0.0000
     93 H          14.1166    9.0805   13.0043 H       1  UNL1        0.0000
     94 H          14.1105    7.3200   12.9724 H       1  UNL1        0.0000
     95 H          13.6580    8.1792   14.4483 H       1  UNL1        0.0000
@<TRIPOS>BOND
     1    90    88    1
     2    91    88    1
     3    89    88    1
     4    88    86    1
     5    28    26    1
     6    29    26    1
     7    21    19    1
     8    22    19    1
     9    24    23    1
    10    25    23    1
    11    26    27    1
    12    26     4    1
    13    19    20    1
    14    19    18    1
    15    73    72    1
    16    23    18    1
    17    23     4    1
    18    86    87    1
    19    86    92    1
    20    86    74    1
    21    94    92    1
    22    93    92    1
    23    16    15    1
    24    72    74   ar
    25    72    70   ar
    26    92    95    1
    27    74    75   ar
    28    71    70    1
    29    18     3    1
    30    18    17    1
    31     4    30    1
    32     4    34    1
    33    70    68   ar
    34    85    82    1
    35    36    34    1
    36    75     3    1
    37    75    67   ar
    38    15    17    2
    39    15    13    1
    40    31    30    1
    41    68    67   ar
    42    68    69    1
    43    17     2    1
    44    67    76    1
    45    30    33    1
    46    30    32    1
    47    34    37    1
    48    34    35    1
    49    14    13    1
    50    82    76    1
    51    82    83    1
    52    82    84    1
    53    13    11    2
    54    77    76    1
    55    76    78    1
    56     2    10    1
    57    11    10    1
    58    11    12    1
    59    10     9    2
    60    78    79    1
    61    78    81    1
    62    78    80    1
    63    61    59    1
    64    58    57    1
    65    65    63    1
    66    60    59    1
    67     9     1    1
    68     9     5    1
    69     1    46    1
    70    59    57    1
    71    59    62    1
    72    57    63    1
    73    57    45    1
    74    63    66    1
    75    63    64    1
    76     7     5    1
    77     5     8    1
    78     5     6    1
    79    48    47    1
    80    46    45   ar
    81    46    38   ar
    82    45    43   ar
    83    56    53    1
    84    55    53    1
    85    47    53    1
    86    47    38    1
    87    47    49    1
    88    53    54    1
    89    38    39   ar
    90    43    44    1
    91    43    41   ar
    92    51    49    1
    93    49    50    1
    94    49    52    1
    95    39    41   ar
    96    39    40    1
    97    41    42    1
