@<TRIPOS>MOLECULE
1,2,3
 77 79 0 0 0
SMALL
GASTEIGER

@<TRIPOS>ATOM
      1 N           4.9339    8.9348   13.7838 N.pl3   1  UNL1       -0.2168
      2 N           4.2053    6.6947   13.1863 N.pl3   1  UNL1       -0.2115
      3 N           5.6312    5.9974   11.1574 N.pl3   1  UNL1       -0.2131
      4 C           3.5561    9.1168   15.7742 C.3     1  UNL1       -0.0055
      5 H           3.9697   10.0622   16.0792 H       1  UNL1        0.0330
      6 H           2.7903    8.6962   16.3993 H       1  UNL1        0.0330
      7 C           3.9848    8.4902   14.6493 C.2     1  UNL1        0.0544
      8 C           3.4714    7.1918   14.2071 C.2     1  UNL1        0.0726
      9 C           2.3788    6.5185   14.7267 C.2     1  UNL1       -0.0371
     10 H           1.8081    6.9487   15.5347 H       1  UNL1        0.0637
     11 C           2.0282    5.2916   14.1834 C.2     1  UNL1       -0.0580
     12 H           1.1793    4.7419   14.5670 H       1  UNL1        0.0619
     13 C           2.7780    4.7856   13.1331 C.2     1  UNL1       -0.0368
     14 H           2.5112    3.8396   12.6899 H       1  UNL1        0.0637
     15 C           3.8656    5.4993   12.6464 C.2     1  UNL1        0.0761
     16 C           4.7217    5.0628   11.5377 C.2     1  UNL1        0.0696
     17 C           4.5927    3.8262   10.9808 C.2     1  UNL1       -0.0737
     18 H           5.2303    3.5119   10.1725 H       1  UNL1        0.0554
     19 H           3.8706    3.1093   11.3259 H       1  UNL1        0.0554
     20 C           6.7714    9.9365   15.0126 C.ar    1  UNL1       -0.0216
     21 C           7.4553   11.0743   15.4035 C.ar    1  UNL1       -0.0565
     22 H           8.3049   11.0003   16.0670 H       1  UNL1        0.0621
     23 C           7.0597   12.3265   14.9638 C.ar    1  UNL1       -0.0611
     24 H           7.5924   13.2085   15.2943 H       1  UNL1        0.0618
     25 C           5.9927   12.4451   14.0941 C.ar    1  UNL1       -0.0565
     26 H           5.6964   13.4279   13.7526 H       1  UNL1        0.0621
     27 C           5.2978   11.3257   13.6659 C.ar    1  UNL1       -0.0216
     28 C           5.6681   10.0601   14.1463 C.ar    1  UNL1        0.0602
     29 C           7.1724    8.5486   15.4581 C.3     1  UNL1       -0.0197
     30 H           6.2499    7.9850   15.6332 H       1  UNL1        0.0344
     31 C           7.9901    8.5249   16.7491 C.3     1  UNL1       -0.0586
     32 H           7.4906    9.0934   17.5309 H       1  UNL1        0.0235
     33 H           8.9845    8.9391   16.5930 H       1  UNL1        0.0235
     34 H           8.1056    7.4979   17.0923 H       1  UNL1        0.0235
     35 C           7.9446    7.8469   14.3347 C.3     1  UNL1       -0.0586
     36 H           7.3386    7.8026   13.4140 H       1  UNL1        0.0235
     37 H           8.2083    6.8346   14.6349 H       1  UNL1        0.0235
     38 H           8.8584    8.3918   14.1053 H       1  UNL1        0.0235
     39 C           4.1250   11.4437   12.7228 C.3     1  UNL1       -0.0197
     40 H           3.8878   10.4274   12.3839 H       1  UNL1        0.0344
     41 C           2.9047   12.0005   13.4598 C.3     1  UNL1       -0.0586
     42 H           2.6521   11.3514   14.2950 H       1  UNL1        0.0235
     43 H           2.0465   12.0579   12.7914 H       1  UNL1        0.0235
     44 H           3.1115   12.9983   13.8451 H       1  UNL1        0.0235
     45 C           4.4586   12.2943   11.4972 C.3     1  UNL1       -0.0586
     46 H           3.6416   12.2525   10.7780 H       1  UNL1        0.0235
     47 H           5.3615   11.9215   11.0192 H       1  UNL1        0.0235
     48 H           4.6155   13.3365   11.7695 H       1  UNL1        0.0235
     49 C           7.7713    5.1052   10.4525 C.ar    1  UNL1       -0.0216
     50 C           8.6533    4.7999    9.4307 C.ar    1  UNL1       -0.0565
     51 H           9.6095    4.3487    9.6575 H       1  UNL1        0.0621
     52 C           8.3286    5.0541    8.1098 C.ar    1  UNL1       -0.0611
     53 H           9.0264    4.8043    7.3208 H       1  UNL1        0.0618
     54 C           7.1077    5.6252    7.8019 C.ar    1  UNL1       -0.0565
     55 H           6.8621    5.8141    6.7654 H       1  UNL1        0.0621
     56 C           6.1973    5.9407    8.7966 C.ar    1  UNL1       -0.0216
     57 C           6.5191    5.6707   10.1412 C.ar    1  UNL1        0.0606
     58 C           8.1017    4.8131   11.8978 C.3     1  UNL1       -0.0197
     59 H           7.4581    5.4688   12.5016 H       1  UNL1        0.0344
     60 C           7.7606    3.3585   12.2363 C.3     1  UNL1       -0.0586
     61 H           6.7077    3.1687   12.0407 H       1  UNL1        0.0235
     62 H           7.9632    3.1541   13.2872 H       1  UNL1        0.0235
     63 H           8.3575    2.6783   11.6290 H       1  UNL1        0.0235
     64 C           9.5593    5.1014   12.2537 C.3     1  UNL1       -0.0586
     65 H           9.6997    5.0306   13.3316 H       1  UNL1        0.0235
     66 H           9.8367    6.1005   11.9330 H       1  UNL1        0.0235
     67 H          10.2301    4.3839   11.7840 H       1  UNL1        0.0235
     68 C           4.8493    6.5374    8.4578 C.3     1  UNL1       -0.0197
     69 H           4.4294    6.9329    9.3919 H       1  UNL1        0.0344
     70 C           3.9054    5.4526    7.9321 C.3     1  UNL1       -0.0586
     71 H           3.7808    4.6772    8.6842 H       1  UNL1        0.0235
     72 H           4.3095    5.0006    7.0268 H       1  UNL1        0.0235
     73 H           2.9279    5.8756    7.7026 H       1  UNL1        0.0235
     74 C           4.9499    7.6850    7.4510 C.3     1  UNL1       -0.0586
     75 H           3.9825    8.1752    7.3484 H       1  UNL1        0.0235
     76 H           5.2493    7.3241    6.4686 H       1  UNL1        0.0235
     77 H           5.6760    8.4231    7.7841 H       1  UNL1        0.0235
@<TRIPOS>BOND
     1    76    74    1
     2    55    54    1
     3    72    70    1
     4    53    52    1
     5    75    74    1
     6    74    77    1
     7    74    68    1
     8    73    70    1
     9    54    52   ar
    10    54    56   ar
    11    70    68    1
    12    70    71    1
    13    52    50   ar
    14    68    56    1
    15    68    69    1
    16    56    57   ar
    17    50    51    1
    18    50    49   ar
    19    57    49   ar
    20    57     3    1
    21    18    17    1
    22    49    58    1
    23    46    45    1
    24    17    19    1
    25    17    16    2
    26    47    45    1
    27     3    16    1
    28    45    48    1
    29    45    39    1
    30    16    15    1
    31    63    60    1
    32    67    64    1
    33    58    60    1
    34    58    64    1
    35    58    59    1
    36    66    64    1
    37    61    60    1
    38    60    62    1
    39    64    65    1
    40    40    39    1
    41    15    13    2
    42    15     2    1
    43    14    13    1
    44    39    41    1
    45    39    27    1
    46    43    41    1
    47    13    11    1
    48     2     8    1
    49    36    35    1
    50    41    44    1
    51    41    42    1
    52    27    25   ar
    53    27    28   ar
    54    26    25    1
    55     1    28    1
    56     1     7    1
    57    25    23   ar
    58    38    35    1
    59    28    20   ar
    60    11    12    1
    61    11     9    2
    62     8     7    2
    63     8     9    1
    64    35    37    1
    65    35    29    1
    66     7     4    1
    67     9    10    1
    68    23    24    1
    69    23    21   ar
    70    20    21   ar
    71    20    29    1
    72    21    22    1
    73    29    30    1
    74    29    31    1
    75     4     5    1
    76     4     6    1
    77    33    31    1
    78    31    34    1
    79    31    32    1
