@<TRIPOS>MOLECULE
1,3,5
 44 46 0 0 0
SMALL
GASTEIGER

@<TRIPOS>ATOM
      1 N           3.5256    4.0094   11.4699 N.3     1  UNL1        0.0000
      2 N           4.2741    3.4196   10.5222 N.pl3   1  UNL1        0.0000
      3 N           5.7145    3.2837   13.1080 N.3     1  UNL1        0.0000
      4 N           6.2060    2.8065   11.9513 N.pl3   1  UNL1        0.0000
      5 N           5.7617    5.7467   11.5910 N.3     1  UNL1        0.0000
      6 N           6.2451    4.9197   10.6483 N.pl3   1  UNL1        0.0000
      7 C           2.2459    3.8327   11.1523 C.3     1  UNL1        0.0000
      8 C           2.1683    3.1066    9.9613 C.2     1  UNL1        0.0000
      9 H           1.2821    2.8020    9.4425 H       1  UNL1        0.0000
     10 C           3.4792    2.8617    9.5901 C.2     1  UNL1        0.0000
     11 C           1.1320    4.3570   11.9865 C.3     1  UNL1        0.0000
     12 H           1.2001    3.9686   13.0032 H       1  UNL1        0.0000
     13 H           0.1775    4.0629   11.5568 H       1  UNL1        0.0000
     14 H           1.1746    5.4454   12.0422 H       1  UNL1        0.0000
     15 C           3.9814    2.1280    8.3994 C.3     1  UNL1        0.0000
     16 H           4.6055    2.7734    7.7831 H       1  UNL1        0.0000
     17 H           3.1395    1.7821    7.8056 H       1  UNL1        0.0000
     18 H           4.5780    1.2678    8.6990 H       1  UNL1        0.0000
     19 C           6.1906    2.5299   14.0966 C.3     1  UNL1        0.0000
     20 C           7.0174    1.5404   13.5575 C.2     1  UNL1        0.0000
     21 H           7.5511    0.7795   14.0900 H       1  UNL1        0.0000
     22 C           7.0011    1.7457   12.1901 C.2     1  UNL1        0.0000
     23 C           5.8466    2.7591   15.5248 C.3     1  UNL1        0.0000
     24 H           5.9241    3.8197   15.7669 H       1  UNL1        0.0000
     25 H           6.5154    2.1871   16.1635 H       1  UNL1        0.0000
     26 H           4.8217    2.4435   15.7229 H       1  UNL1        0.0000
     27 C           7.7065    0.9787   11.1304 C.3     1  UNL1        0.0000
     28 H           6.9957    0.5362   10.4343 H       1  UNL1        0.0000
     29 H           8.2908    0.1844   11.5871 H       1  UNL1        0.0000
     30 H           8.3742    1.6264   10.5647 H       1  UNL1        0.0000
     31 C           6.2758    6.9563   11.3776 C.3     1  UNL1        0.0000
     32 C           7.1186    6.9027   10.2643 C.2     1  UNL1        0.0000
     33 H           7.6821    7.7075    9.8378 H       1  UNL1        0.0000
     34 C           7.0719    5.5920    9.8248 C.2     1  UNL1        0.0000
     35 C           5.9483    8.1305   12.2285 C.3     1  UNL1        0.0000
     36 H           4.9509    8.5035   11.9921 H       1  UNL1        0.0000
     37 H           6.6662    8.9275   12.0508 H       1  UNL1        0.0000
     38 H           5.9600    7.8485   13.2827 H       1  UNL1        0.0000
     39 C           7.7776    4.9764    8.6709 C.3     1  UNL1        0.0000
     40 H           8.4177    4.1599    9.0010 H       1  UNL1        0.0000
     41 H           8.3904    5.7270    8.1791 H       1  UNL1        0.0000
     42 H           7.0657    4.5766    7.9503 H       1  UNL1        0.0000
     43 B           5.8104    3.4462   10.6113 B       1  UNL1        0.0000
     44 H           6.3002    2.8775    9.7024 H       1  UNL1        0.0000
@<TRIPOS>BOND
     1    16    15    1
     2    17    15    1
     3    42    39    1
     4    41    39    1
     5    15    18    1
     6    15    10    1
     7    39    40    1
     8    39    34    1
     9     9     8    1
    10    10     8    2
    11    10     2    1
    12    44    43    1
    13    34    32    2
    14    34     6    1
    15    33    32    1
    16     8     7    1
    17    32    31    1
    18    28    27    1
    19     2    43    1
    20     2     1    1
    21    30    27    1
    22    43     6    1
    23    43     4    1
    24     6     5    1
    25    27    29    1
    26    27    22    1
    27     7     1    1
    28     7    11    1
    29    31     5    1
    30    31    35    1
    31    13    11    1
    32     4    22    1
    33     4     3    1
    34    11    14    1
    35    11    12    1
    36    36    35    1
    37    37    35    1
    38    22    20    2
    39    35    38    1
    40     3    19    1
    41    20    21    1
    42    20    19    1
    43    19    23    1
    44    23    26    1
    45    23    24    1
    46    23    25    1
