@<TRIPOS>MOLECULE
1,3,5
 44 46 0 0 0
SMALL
GASTEIGER

@<TRIPOS>ATOM
      1 N           6.3958    7.6414    2.4742 N.3     1  UNL1        0.0000
      2 N           5.1470    8.0959    2.6722 N.pl3   1  UNL1        0.0000
      3 N           6.6576    8.3708    5.2057 N.3     1  UNL1        0.0000
      4 N           5.3872    8.7783    5.0443 N.pl3   1  UNL1        0.0000
      5 N           7.0644   10.3320    3.1150 N.3     1  UNL1        0.0000
      6 N           5.7297   10.4417    3.2294 N.pl3   1  UNL1        0.0000
      7 C           6.3388    6.6642    1.5732 C.3     1  UNL1        0.0000
      8 C           5.0106    6.4847    1.1789 C.2     1  UNL1        0.0000
      9 H           4.6338    5.7771    0.4685 H       1  UNL1        0.0000
     10 C           4.2809    7.4137    1.9000 C.2     1  UNL1        0.0000
     11 C           7.5422    5.9243    1.1081 C.3     1  UNL1        0.0000
     12 H           8.2713    6.6104    0.6764 H       1  UNL1        0.0000
     13 H           7.2576    5.1916    0.3569 H       1  UNL1        0.0000
     14 H           8.0211    5.4088    1.9410 H       1  UNL1        0.0000
     15 C           2.8158    7.6613    1.8738 C.3     1  UNL1        0.0000
     16 H           2.3809    7.5091    2.8604 H       1  UNL1        0.0000
     17 H           2.3455    6.9767    1.1730 H       1  UNL1        0.0000
     18 H           2.6020    8.6833    1.5648 H       1  UNL1        0.0000
     19 C           6.8116    8.0020    6.4751 C.3     1  UNL1        0.0000
     20 C           5.6013    8.1806    7.1511 C.2     1  UNL1        0.0000
     21 H           5.3982    7.9780    8.1832 H       1  UNL1        0.0000
     22 C           4.7176    8.6737    6.2084 C.2     1  UNL1        0.0000
     23 C           8.0993    7.4922    7.0161 C.3     1  UNL1        0.0000
     24 H           8.2681    6.4649    6.6916 H       1  UNL1        0.0000
     25 H           8.0785    7.5125    8.1032 H       1  UNL1        0.0000
     26 H           8.9271    8.1023    6.6516 H       1  UNL1        0.0000
     27 C           3.2886    9.0424    6.3834 C.3     1  UNL1        0.0000
     28 H           3.1265   10.0887    6.1297 H       1  UNL1        0.0000
     29 H           2.9978    8.8824    7.4182 H       1  UNL1        0.0000
     30 H           2.6505    8.4368    5.7416 H       1  UNL1        0.0000
     31 C           7.5396   11.5105    2.7168 C.3     1  UNL1        0.0000
     32 C           6.4757   12.4046    2.5710 C.2     1  UNL1        0.0000
     33 H           6.5270   13.4296    2.2647 H       1  UNL1        0.0000
     34 C           5.3396   11.6887    2.9025 C.2     1  UNL1        0.0000
     35 C           8.9872   11.7595    2.4865 C.3     1  UNL1        0.0000
     36 H           9.5791   11.3209    3.2913 H       1  UNL1        0.0000
     37 H           9.1739   12.8293    2.4335 H       1  UNL1        0.0000
     38 H           9.3066   11.3049    1.5482 H       1  UNL1        0.0000
     39 C           3.9267   12.1493    2.9147 C.3     1  UNL1        0.0000
     40 H           3.3216   11.5594    2.2280 H       1  UNL1        0.0000
     41 H           3.8837   13.1924    2.6127 H       1  UNL1        0.0000
     42 H           3.4971   12.0530    3.9106 H       1  UNL1        0.0000
     43 B           4.8810    9.2378    3.6679 B       1  UNL1        0.0000
     44 H           3.7354    9.5132    3.7033 H       1  UNL1        0.0000
@<TRIPOS>BOND
     1    13    11    1
     2     9     8    1
     3    12    11    1
     4    11     7    1
     5    11    14    1
     6    17    15    1
     7     8     7    1
     8     8    10    2
     9    38    35    1
    10    18    15    1
    11     7     1    1
    12    15    10    1
    13    15    16    1
    14    10     2    1
    15    40    39    1
    16    33    32    1
    17    37    35    1
    18     1     2    1
    19    35    31    1
    20    35    36    1
    21    32    31    1
    22    32    34    2
    23    41    39    1
    24     2    43    1
    25    31     5    1
    26    34    39    1
    27    34     6    1
    28    39    42    1
    29     5     6    1
    30     6    43    1
    31    43    44    1
    32    43     4    1
    33     4     3    1
    34     4    22    1
    35     3    19    1
    36    30    27    1
    37    28    27    1
    38    22    27    1
    39    22    20    2
    40    27    29    1
    41    19    23    1
    42    19    20    1
    43    26    23    1
    44    24    23    1
    45    23    25    1
    46    20    21    1
