@<TRIPOS>MOLECULE
3,4,5
 49 49 0 0 0
SMALL
GASTEIGER

@<TRIPOS>ATOM
      1 SI         -8.7348  -11.8229   -0.7459 Si      1  UNL1        0.0000
      2 SI         -9.2143   -6.3732   -3.8916 Si      1  UNL1        0.0000
      3 N          -7.0558  -10.4349   -3.2762 N.pl3   1  UNL1        0.0000
      4 N          -8.5713  -10.2283   -1.3405 N.3     1  UNL1        0.0000
      5 N          -8.4987   -7.7714   -3.1701 N.3     1  UNL1        0.0000
      6 C          -6.6166   -8.6646   -1.6961 C.3     1  UNL1        0.0000
      7 C          -7.6325   -9.3446   -0.7166 C.3     1  UNL1        0.0000
      8 H          -7.0312   -9.8742    0.0383 H       1  UNL1        0.0000
      9 H          -8.1503   -8.5221   -0.1948 H       1  UNL1        0.0000
     10 C          -7.2848   -7.4883   -2.4453 C.3     1  UNL1        0.0000
     11 H          -7.4742   -6.7110   -1.6849 H       1  UNL1        0.0000
     12 H          -6.5218   -7.0735   -3.1291 H       1  UNL1        0.0000
     13 C          -5.4944   -8.0592   -0.8416 C.3     1  UNL1        0.0000
     14 H          -5.9265   -7.3891   -0.1012 H       1  UNL1        0.0000
     15 H          -4.8030   -7.4815   -1.4519 H       1  UNL1        0.0000
     16 H          -4.9442   -8.8327   -0.3104 H       1  UNL1        0.0000
     17 C          -6.1142   -9.7281   -2.6334 C.3     1  UNL1        0.0000
     18 C          -4.7644  -10.0645   -2.7465 C.2     1  UNL1        0.0000
     19 H          -4.0069   -9.4642   -2.2717 H       1  UNL1        0.0000
     20 C          -4.3887  -11.1697   -3.4868 C.2     1  UNL1        0.0000
     21 H          -3.3455  -11.4209   -3.6066 H       1  UNL1        0.0000
     22 C          -5.3833  -11.9688   -4.0315 C.2     1  UNL1        0.0000
     23 H          -5.1486  -12.8781   -4.5606 H       1  UNL1        0.0000
     24 C          -6.6958  -11.5585   -3.8976 C.2     1  UNL1        0.0000
     25 H          -7.4945  -12.1679   -4.2968 H       1  UNL1        0.0000
     26 C          -9.7913  -12.7268   -2.0537 C.3     1  UNL1        0.0000
     27 H          -9.1993  -13.4379   -2.6224 H       1  UNL1        0.0000
     28 H         -10.2157  -11.9881   -2.7389 H       1  UNL1        0.0000
     29 H         -10.6080  -13.2795   -1.6014 H       1  UNL1        0.0000
     30 C          -9.5767  -11.9034    0.9821 C.3     1  UNL1        0.0000
     31 H          -9.0150  -11.3310    1.7153 H       1  UNL1        0.0000
     32 H          -9.6273  -12.9268    1.3404 H       1  UNL1        0.0000
     33 H         -10.5892  -11.5115    0.9705 H       1  UNL1        0.0000
     34 C          -7.0657  -12.7549   -0.5144 C.3     1  UNL1        0.0000
     35 H          -6.4688  -12.2924    0.2666 H       1  UNL1        0.0000
     36 H          -6.4680  -12.7585   -1.4224 H       1  UNL1        0.0000
     37 H          -7.2273  -13.7876   -0.2231 H       1  UNL1        0.0000
     38 C          -7.8871   -5.2574   -4.7347 C.3     1  UNL1        0.0000
     39 H          -7.2887   -4.7344   -3.9945 H       1  UNL1        0.0000
     40 H          -8.3589   -4.5021   -5.3548 H       1  UNL1        0.0000
     41 H          -7.2079   -5.8190   -5.3683 H       1  UNL1        0.0000
     42 C         -10.0171   -5.1719   -2.6136 C.3     1  UNL1        0.0000
     43 H          -9.3136   -4.9074   -1.8280 H       1  UNL1        0.0000
     44 H         -10.8994   -5.5831   -2.1346 H       1  UNL1        0.0000
     45 H         -10.3136   -4.2479   -3.1004 H       1  UNL1        0.0000
     46 C         -10.4698   -6.9020   -5.2176 C.3     1  UNL1        0.0000
     47 H         -10.0095   -7.5265   -5.9774 H       1  UNL1        0.0000
     48 H         -10.8901   -6.0302   -5.7080 H       1  UNL1        0.0000
     49 H         -11.2845   -7.4632   -4.7762 H       1  UNL1        0.0000
@<TRIPOS>BOND
     1    47    46    1
     2    48    46    1
     3    41    38    1
     4    40    38    1
     5    46    49    1
     6    46     2    1
     7    38    39    1
     8    38     2    1
     9    23    22    1
    10    25    24    1
    11    22    24    2
    12    22    20    1
    13    24     3    1
    14     2     5    1
    15     2    42    1
    16    21    20    1
    17    20    18    2
    18     3    17    1
    19     5    10    1
    20    12    10    1
    21    45    42    1
    22    18    17    1
    23    18    19    1
    24    28    26    1
    25    17     6    1
    26    27    26    1
    27    42    44    1
    28    42    43    1
    29    10     6    1
    30    10    11    1
    31    26    29    1
    32    26     1    1
    33     6    13    1
    34     6     7    1
    35    15    13    1
    36    36    34    1
    37     4     1    1
    38     4     7    1
    39    13    16    1
    40    13    14    1
    41     1    34    1
    42     1    30    1
    43     7     9    1
    44     7     8    1
    45    34    37    1
    46    34    35    1
    47    33    30    1
    48    30    32    1
    49    30    31    1
