@<TRIPOS>MOLECULE
3,4,5
 49 49 0 0 0
SMALL
GASTEIGER

@<TRIPOS>ATOM
      1 SI         -4.9204    0.4122   -8.0790 Si      1  UNL1        0.0000
      2 SI         -5.2539   -1.0609   -1.9507 Si      1  UNL1        0.0000
      3 N          -4.1895    2.0383   -5.2345 N.pl3   1  UNL1        0.0000
      4 N          -4.6216   -0.0630   -6.4643 N.3     1  UNL1        0.0000
      5 N          -4.6967   -0.3268   -3.4124 N.3     1  UNL1        0.0000
      6 C          -2.6715    0.1977   -4.8742 C.3     1  UNL1        0.0000
      7 C          -3.3117   -0.5216   -6.1090 C.3     1  UNL1        0.0000
      8 H          -2.6070   -0.3917   -6.9448 H       1  UNL1        0.0000
      9 H          -3.3223   -1.5971   -5.8637 H       1  UNL1        0.0000
     10 C          -3.2622   -0.3521   -3.5553 C.3     1  UNL1        0.0000
     11 H          -2.8941   -1.3888   -3.4657 H       1  UNL1        0.0000
     12 H          -2.7883    0.2167   -2.7341 H       1  UNL1        0.0000
     13 C          -1.1774   -0.1537   -4.8659 C.3     1  UNL1        0.0000
     14 H          -1.0618   -1.2357   -4.8711 H       1  UNL1        0.0000
     15 H          -0.6876    0.2305   -3.9734 H       1  UNL1        0.0000
     16 H          -0.6762    0.2391   -5.7478 H       1  UNL1        0.0000
     17 C          -2.9142    1.6728   -5.0351 C.3     1  UNL1        0.0000
     18 C          -1.8811    2.6087   -5.1033 C.2     1  UNL1        0.0000
     19 H          -0.8650    2.3215   -4.8923 H       1  UNL1        0.0000
     20 C          -2.1605    3.9224   -5.4299 C.2     1  UNL1        0.0000
     21 H          -1.3734    4.6610   -5.4549 H       1  UNL1        0.0000
     22 C          -3.4646    4.2554   -5.7658 C.2     1  UNL1        0.0000
     23 H          -3.7258    5.2491   -6.0918 H       1  UNL1        0.0000
     24 C          -4.4366    3.2800   -5.6533 C.2     1  UNL1        0.0000
     25 H          -5.4584    3.5045   -5.9246 H       1  UNL1        0.0000
     26 C          -4.8893   -1.0613   -9.3157 C.3     1  UNL1        0.0000
     27 H          -3.9309   -1.5727   -9.2871 H       1  UNL1        0.0000
     28 H          -5.0421   -0.7169  -10.3336 H       1  UNL1        0.0000
     29 H          -5.6573   -1.7986   -9.1020 H       1  UNL1        0.0000
     30 C          -6.6458    1.2260   -8.0452 C.3     1  UNL1        0.0000
     31 H          -6.5805    2.3014   -8.1812 H       1  UNL1        0.0000
     32 H          -7.1195    1.0153   -7.0829 H       1  UNL1        0.0000
     33 H          -7.2885    0.8428   -8.8307 H       1  UNL1        0.0000
     34 C          -3.6380    1.6654   -8.7823 C.3     1  UNL1        0.0000
     35 H          -3.5650    2.5624   -8.1728 H       1  UNL1        0.0000
     36 H          -3.8979    1.9727   -9.7900 H       1  UNL1        0.0000
     37 H          -2.6473    1.2220   -8.8287 H       1  UNL1        0.0000
     38 C          -7.0542   -0.5444   -1.6300 C.3     1  UNL1        0.0000
     39 H          -7.7066   -0.9233   -2.4076 H       1  UNL1        0.0000
     40 H          -7.1585    0.5358   -1.6067 H       1  UNL1        0.0000
     41 H          -7.3991   -0.9380   -0.6795 H       1  UNL1        0.0000
     42 C          -4.1889   -0.5194   -0.4370 C.3     1  UNL1        0.0000
     43 H          -3.2178   -1.0056   -0.4500 H       1  UNL1        0.0000
     44 H          -4.6730   -0.7989    0.4931 H       1  UNL1        0.0000
     45 H          -4.0187    0.5519   -0.4047 H       1  UNL1        0.0000
     46 C          -5.0641   -2.9804   -1.9238 C.3     1  UNL1        0.0000
     47 H          -4.0434   -3.2771   -2.1523 H       1  UNL1        0.0000
     48 H          -5.7151   -3.4854   -2.6295 H       1  UNL1        0.0000
     49 H          -5.2949   -3.3672   -0.9359 H       1  UNL1        0.0000
@<TRIPOS>BOND
     1    28    26    1
     2    36    34    1
     3    26    27    1
     4    26    29    1
     5    26     1    1
     6    33    30    1
     7    37    34    1
     8    34    35    1
     9    34     1    1
    10    31    30    1
    11     1    30    1
    12     1     4    1
    13    30    32    1
    14     8     7    1
    15     4     7    1
    16     7     9    1
    17     7     6    1
    18    23    22    1
    19    25    24    1
    20    22    24    2
    21    22    20    1
    22    16    13    1
    23    24     3    1
    24    21    20    1
    25    20    18    2
    26     3    17    1
    27    18    17    1
    28    18    19    1
    29    17     6    1
    30     6    13    1
    31     6    10    1
    32    14    13    1
    33    13    15    1
    34    10    11    1
    35    10     5    1
    36    10    12    1
    37     5     2    1
    38    48    46    1
    39    39    38    1
    40    47    46    1
    41     2    46    1
    42     2    38    1
    43     2    42    1
    44    46    49    1
    45    38    40    1
    46    38    41    1
    47    43    42    1
    48    42    45    1
    49    42    44    1
