@<TRIPOS>MOLECULE
1,2,3
 58 58 0 0 0
SMALL
GASTEIGER

@<TRIPOS>ATOM
      1 N           6.5260    9.6385    6.9245 N.pl3   1  UNL1       -0.2193
      2 N           5.1408    7.4199    5.3438 N.3     1  UNL1       -0.2264
      3 N           2.6206    8.6056    4.9584 N.3     1  UNL1       -0.3071
      4 C           8.2135    8.6981    8.4581 C.3     1  UNL1       -0.0249
      5 H           9.2145    8.5874    8.0436 H       1  UNL1        0.0290
      6 H           8.0695    7.9063    9.1908 H       1  UNL1        0.0290
      7 H           8.1484    9.6609    8.9584 H       1  UNL1        0.0290
      8 C           7.1873    8.5791    7.3505 C.2     1  UNL1        0.0261
      9 C           7.0043    7.2803    6.8688 C.2     1  UNL1       -0.0422
     10 H           7.6748    6.5580    7.3140 H       1  UNL1        0.0607
     11 C           6.0747    6.7316    5.9785 C.3     1  UNL1        0.0764
     12 C           6.1502    5.2292    5.8267 C.3     1  UNL1       -0.0396
     13 H           7.0531    4.8376    6.2849 H       1  UNL1        0.0252
     14 H           6.1438    4.9478    4.7757 H       1  UNL1        0.0252
     15 H           5.2929    4.7549    6.3064 H       1  UNL1        0.0252
     16 C           4.1518    6.6506    4.6050 C.3     1  UNL1        0.0277
     17 H           3.7052    5.8853    5.2564 H       1  UNL1        0.0454
     18 H           4.6138    6.1259    3.7553 H       1  UNL1        0.0454
     19 C           3.0311    7.5334    4.0413 C.3     1  UNL1        0.0125
     20 H           3.3804    8.0028    3.1132 H       1  UNL1        0.0439
     21 H           2.1723    6.8851    3.7938 H       1  UNL1        0.0439
     22 C           1.5447    9.3758    4.3355 C.3     1  UNL1       -0.0130
     23 H           1.2589   10.1914    4.9986 H       1  UNL1        0.0391
     24 H           0.6648    8.7468    4.1379 H       1  UNL1        0.0391
     25 H           1.8856    9.8046    3.3931 H       1  UNL1        0.0391
     26 C           2.1162    8.0558    6.2192 C.3     1  UNL1       -0.0130
     27 H           2.9081    7.5264    6.7476 H       1  UNL1        0.0391
     28 H           1.2768    7.3665    6.0473 H       1  UNL1        0.0391
     29 H           1.7693    8.8780    6.8459 H       1  UNL1        0.0391
     30 C           6.7493   10.9123    7.5123 C.ar    1  UNL1        0.0601
     31 C           5.7612   11.4338    8.3699 C.ar    1  UNL1       -0.0216
     32 C           5.9617   12.6828    8.9378 C.ar    1  UNL1       -0.0565
     33 H           5.2218   13.0969    9.6028 H       1  UNL1        0.0621
     34 C           7.1052   13.4119    8.6675 C.ar    1  UNL1       -0.0611
     35 H           7.2465   14.3798    9.1255 H       1  UNL1        0.0618
     36 C           8.0601   12.9042    7.8087 C.ar    1  UNL1       -0.0565
     37 H           8.9451   13.4840    7.5941 H       1  UNL1        0.0621
     38 C           7.9032   11.6584    7.2166 C.ar    1  UNL1       -0.0216
     39 C           8.9477   11.1524    6.2453 C.3     1  UNL1       -0.0197
     40 H           8.7204   10.1095    5.9997 H       1  UNL1        0.0344
     41 C           8.8910   11.9655    4.9476 C.3     1  UNL1       -0.0586
     42 H           7.9043   11.8845    4.4881 H       1  UNL1        0.0235
     43 H           9.6311   11.6003    4.2378 H       1  UNL1        0.0235
     44 H           9.0941   13.0163    5.1411 H       1  UNL1        0.0235
     45 C          10.3568   11.2073    6.8424 C.3     1  UNL1       -0.0586
     46 H          10.6962   12.2346    6.9468 H       1  UNL1        0.0235
     47 H          11.0556   10.6892    6.1887 H       1  UNL1        0.0235
     48 H          10.3858   10.7379    7.8232 H       1  UNL1        0.0235
     49 C           4.5339   10.6055    8.6987 C.3     1  UNL1       -0.0197
     50 H           4.2736   10.0048    7.8033 H       1  UNL1        0.0344
     51 C           4.8541    9.6390    9.8449 C.3     1  UNL1       -0.0586
     52 H           5.6368    8.9422    9.5572 H       1  UNL1        0.0235
     53 H           3.9676    9.0687   10.1159 H       1  UNL1        0.0235
     54 H           5.1877   10.1946   10.7195 H       1  UNL1        0.0235
     55 C           3.3087   11.4481    9.0496 C.3     1  UNL1       -0.0586
     56 H           3.4318   11.9468   10.0078 H       1  UNL1        0.0235
     57 H           2.4328   10.8058    9.1203 H       1  UNL1        0.0235
     58 H           3.1266   12.1900    8.2762 H       1  UNL1        0.0235
@<TRIPOS>BOND
     1    20    19    1
     2    25    22    1
     3    18    16    1
     4    21    19    1
     5    19    16    1
     6    19     3    1
     7    24    22    1
     8    43    41    1
     9    22     3    1
    10    22    23    1
    11    42    41    1
    12    16    17    1
    13    16     2    1
    14    14    12    1
    15    41    44    1
    16    41    39    1
    17     3    26    1
    18     2    11    1
    19    12    11    1
    20    12    13    1
    21    12    15    1
    22    11     9    1
    23    40    39    1
    24    28    26    1
    25    47    45    1
    26    26    27    1
    27    26    29    1
    28    39    45    1
    29    39    38    1
    30    45    46    1
    31    45    48    1
    32     9    10    1
    33     9     8    2
    34     1     8    1
    35     1    30    1
    36    38    30   ar
    37    38    36   ar
    38     8     4    1
    39    30    31   ar
    40    37    36    1
    41    50    49    1
    42    36    34   ar
    43     5     4    1
    44    58    55    1
    45    31    49    1
    46    31    32   ar
    47     4     7    1
    48     4     6    1
    49    34    32   ar
    50    34    35    1
    51    49    55    1
    52    49    51    1
    53    32    33    1
    54    55    57    1
    55    55    56    1
    56    52    51    1
    57    51    53    1
    58    51    54    1
