@<TRIPOS>MOLECULE
1,2,3
 58 58 0 0 0
SMALL
GASTEIGER

@<TRIPOS>ATOM
      1 N           5.9223    5.1742    5.9585 N.pl3   1  UNL1       -0.2193
      2 N           7.3143    7.3218    7.6506 N.3     1  UNL1       -0.2264
      3 N           9.7724    6.0372    8.4470 N.3     1  UNL1       -0.3071
      4 C           4.2705    6.1631    4.4372 C.3     1  UNL1       -0.0249
      5 H           4.3208    5.1978    3.9390 H       1  UNL1        0.0290
      6 H           4.4156    6.9512    3.7022 H       1  UNL1        0.0290
      7 H           3.2749    6.2809    4.8636 H       1  UNL1        0.0290
      8 C           5.3054    6.2606    5.5388 C.2     1  UNL1        0.0261
      9 C           5.5236    7.5444    6.0427 C.2     1  UNL1       -0.0422
     10 H           4.8892    8.2956    5.5926 H       1  UNL1        0.0607
     11 C           6.4429    8.0477    6.9762 C.3     1  UNL1        0.0764
     12 C           6.4108    9.5506    7.1455 C.3     1  UNL1       -0.0396
     13 H           6.2642    9.8124    8.1922 H       1  UNL1        0.0252
     14 H           5.6102    9.9950    6.5626 H       1  UNL1        0.0252
     15 H           7.3548    9.9901    6.8223 H       1  UNL1        0.0252
     16 C           8.2489    8.0386    8.5047 C.3     1  UNL1        0.0277
     17 H           7.7145    8.6333    9.2602 H       1  UNL1        0.0454
     18 H           8.8459    8.7414    7.9048 H       1  UNL1        0.0454
     19 C           9.1964    7.1065    9.2731 C.3     1  UNL1        0.0125
     20 H           9.9961    7.7265    9.7159 H       1  UNL1        0.0439
     21 H           8.6371    6.6328   10.0894 H       1  UNL1        0.0439
     22 C          10.6181    6.5899    7.3890 C.3     1  UNL1       -0.0130
     23 H          11.0681    5.7697    6.8291 H       1  UNL1        0.0391
     24 H          11.4235    7.2141    7.8038 H       1  UNL1        0.0391
     25 H          10.0226    7.1923    6.7040 H       1  UNL1        0.0391
     26 C          10.5904    5.1650    9.2916 C.3     1  UNL1       -0.0130
     27 H           9.9739    4.7180   10.0746 H       1  UNL1        0.0391
     28 H          11.4196    5.7161    9.7575 H       1  UNL1        0.0391
     29 H          11.0016    4.3575    8.6857 H       1  UNL1        0.0391
     30 C           5.7693    3.9249    5.3073 C.ar    1  UNL1        0.0601
     31 C           4.8202    2.9935    5.7594 C.ar    1  UNL1       -0.0216
     32 C           4.8192    1.7179    5.2116 C.ar    1  UNL1       -0.0565
     33 H           4.1015    0.9907    5.5606 H       1  UNL1        0.0621
     34 C           5.7267    1.3658    4.2317 C.ar    1  UNL1       -0.0611
     35 H           5.7300    0.3628    3.8318 H       1  UNL1        0.0618
     36 C           6.6214    2.3044    3.7488 C.ar    1  UNL1       -0.0565
     37 H           7.3069    2.0207    2.9665 H       1  UNL1        0.0621
     38 C           6.6456    3.5946    4.2540 C.ar    1  UNL1       -0.0216
     39 C           7.5821    4.6487    3.6965 C.3     1  UNL1       -0.0197
     40 H           7.1023    5.6266    3.8233 H       1  UNL1        0.0344
     41 C           8.9054    4.6670    4.4723 C.3     1  UNL1       -0.0586
     42 H           8.7424    5.0040    5.5081 H       1  UNL1        0.0235
     43 H           9.6080    5.3473    3.9924 H       1  UNL1        0.0235
     44 H           9.3419    3.6694    4.4999 H       1  UNL1        0.0235
     45 C           7.8552    4.4592    2.2033 C.3     1  UNL1       -0.0586
     46 H           8.5085    3.6085    2.0277 H       1  UNL1        0.0235
     47 H           8.3456    5.3448    1.8042 H       1  UNL1        0.0235
     48 H           6.9269    4.3061    1.6574 H       1  UNL1        0.0235
     49 C           3.8041    3.3713    6.8162 C.3     1  UNL1       -0.0197
     50 H           3.9363    4.4341    7.0575 H       1  UNL1        0.0344
     51 C           2.3781    3.1873    6.2892 C.3     1  UNL1       -0.0586
     52 H           2.2373    3.7394    5.3624 H       1  UNL1        0.0235
     53 H           1.6606    3.5503    7.0221 H       1  UNL1        0.0235
     54 H           2.1661    2.1386    6.0977 H       1  UNL1        0.0235
     55 C           4.0108    2.5551    8.0954 C.3     1  UNL1       -0.0586
     56 H           3.8787    1.4926    7.9043 H       1  UNL1        0.0235
     57 H           3.2935    2.8503    8.8593 H       1  UNL1        0.0235
     58 H           5.0210    2.7048    8.4931 H       1  UNL1        0.0235
@<TRIPOS>BOND
     1    48    45    1
     2    47    45    1
     3    46    45    1
     4    45    39    1
     5    37    36    1
     6    39    40    1
     7    39    38    1
     8    39    41    1
     9     6     4    1
    10    36    34   ar
    11    36    38   ar
    12    35    34    1
    13     5     4    1
    14    43    41    1
    15    34    32   ar
    16    38    30   ar
    17     4     7    1
    18     4     8    1
    19    41    44    1
    20    41    42    1
    21    32    33    1
    22    32    31   ar
    23    30    31   ar
    24    30     1    1
    25    52    51    1
    26     8     1    1
    27     8     9    2
    28    10     9    1
    29    31    49    1
    30     9    11    1
    31    54    51    1
    32    51    49    1
    33    51    53    1
    34    14    12    1
    35    25    22    1
    36    49    50    1
    37    49    55    1
    38    15    12    1
    39    23    22    1
    40    11    12    1
    41    11     2    1
    42    12    13    1
    43    22    24    1
    44    22     3    1
    45     2    16    1
    46    56    55    1
    47    18    16    1
    48    55    58    1
    49    55    57    1
    50     3    19    1
    51     3    26    1
    52    16    17    1
    53    16    19    1
    54    29    26    1
    55    19    20    1
    56    19    21    1
    57    26    28    1
    58    26    27    1
