@<TRIPOS>MOLECULE
1,2,3
 56 57 0 0 0
SMALL
GASTEIGER

@<TRIPOS>ATOM
      1 N           5.2319    1.7279    3.4294 N.pl3   1  UNL1       -0.2193
      2 N           5.2378    4.3701    2.9249 N.3     1  UNL1       -0.2251
      3 N           3.1736    4.7908    4.3842 N.pl3   1  UNL1       -0.2437
      4 C           7.2870    0.4904    2.7481 C.3     1  UNL1       -0.0249
      5 H           6.9749   -0.2518    3.4784 H       1  UNL1        0.0290
      6 H           8.3150    0.7833    2.9583 H       1  UNL1        0.0290
      7 H           7.2733    0.0356    1.7583 H       1  UNL1        0.0290
      8 C           6.3839    1.7025    2.7702 C.2     1  UNL1        0.0261
      9 C           6.8374    2.8232    2.0787 C.2     1  UNL1       -0.0422
     10 H           7.7365    2.6992    1.4936 H       1  UNL1        0.0607
     11 C           6.2906    4.0978    2.1491 C.3     1  UNL1        0.0764
     12 C           6.9784    5.1840    1.3593 C.3     1  UNL1       -0.0396
     13 H           6.2671    5.7055    0.7190 H       1  UNL1        0.0252
     14 H           7.7541    4.7555    0.7318 H       1  UNL1        0.0252
     15 H           7.4418    5.9213    2.0165 H       1  UNL1        0.0252
     16 C           4.8354    0.5972    4.1659 C.ar    1  UNL1        0.0601
     17 C           4.2996   -0.5286    3.5137 C.ar    1  UNL1       -0.0216
     18 C           3.8700   -1.6017    4.2808 C.ar    1  UNL1       -0.0565
     19 H           3.4356   -2.4625    3.7952 H       1  UNL1        0.0621
     20 C           4.0180   -1.6041    5.6541 C.ar    1  UNL1       -0.0611
     21 H           3.6907   -2.4547    6.2341 H       1  UNL1        0.0618
     22 C           4.6108   -0.5250    6.2843 C.ar    1  UNL1       -0.0565
     23 H           4.7550   -0.5563    7.3527 H       1  UNL1        0.0621
     24 C           5.0185    0.5870    5.5639 C.ar    1  UNL1       -0.0216
     25 C           4.2374   -0.6140    2.0046 C.3     1  UNL1       -0.0197
     26 H           4.7185    0.2742    1.5879 H       1  UNL1        0.0344
     27 C           2.7953   -0.6283    1.5024 C.3     1  UNL1       -0.0586
     28 H           2.2647   -1.5046    1.8669 H       1  UNL1        0.0235
     29 H           2.7829   -0.6518    0.4143 H       1  UNL1        0.0235
     30 H           2.2846    0.2659    1.8435 H       1  UNL1        0.0235
     31 C           4.9723   -1.8601    1.4955 C.3     1  UNL1       -0.0586
     32 H           4.4176   -2.7626    1.7410 H       1  UNL1        0.0235
     33 H           5.9637   -1.9453    1.9329 H       1  UNL1        0.0235
     34 H           5.0742   -1.8130    0.4132 H       1  UNL1        0.0235
     35 C           5.6992    1.7533    6.2550 C.3     1  UNL1       -0.0197
     36 H           5.4680    2.6717    5.6783 H       1  UNL1        0.0344
     37 C           5.2286    1.9726    7.6935 C.3     1  UNL1       -0.0586
     38 H           4.1439    1.9608    7.7582 H       1  UNL1        0.0235
     39 H           5.5838    2.9373    8.0510 H       1  UNL1        0.0235
     40 H           5.6258    1.2069    8.3562 H       1  UNL1        0.0235
     41 C           7.2189    1.5547    6.2387 C.3     1  UNL1       -0.0586
     42 H           7.4802    0.6079    6.7083 H       1  UNL1        0.0235
     43 H           7.7085    2.3588    6.7847 H       1  UNL1        0.0235
     44 H           7.5958    1.5539    5.2205 H       1  UNL1        0.0235
     45 C           4.8938    5.7666    3.0392 C.3     1  UNL1        0.0441
     46 H           5.7601    6.3590    3.3709 H       1  UNL1        0.0467
     47 H           4.5760    6.1709    2.0647 H       1  UNL1        0.0467
     48 C           3.7732    5.9425    4.0125 C.3     1  UNL1        0.1129
     49 C           3.3906    7.1908    4.4554 C.2     1  UNL1       -0.0554
     50 H           3.9156    8.0647    4.0988 H       1  UNL1        0.0595
     51 C           2.3288    7.3114    5.3462 C.2     1  UNL1       -0.0623
     52 H           2.0068    8.2740    5.7081 H       1  UNL1        0.0616
     53 C           1.7059    6.1338    5.7432 C.2     1  UNL1       -0.0466
     54 H           0.8758    6.1541    6.4323 H       1  UNL1        0.0630
     55 C           2.1441    4.9267    5.2480 C.2     1  UNL1        0.0125
     56 H           1.6571    4.0142    5.5423 H       1  UNL1        0.0797
@<TRIPOS>BOND
     1    34    31    1
     2    29    27    1
     3    13    12    1
     4    14    12    1
     5    12    15    1
     6    12    11    1
     7    10     9    1
     8    31    32    1
     9    31    33    1
    10    31    25    1
    11    27    30    1
    12    27    28    1
    13    27    25    1
    14    26    25    1
    15     7     4    1
    16    25    17    1
    17    47    45    1
    18     9    11    1
    19     9     8    2
    20    11     2    1
    21     4     8    1
    22     4     6    1
    23     4     5    1
    24     8     1    1
    25     2    45    1
    26    45    46    1
    27    45    48    1
    28     1    16    1
    29    17    16   ar
    30    17    18   ar
    31    19    18    1
    32    48     3    1
    33    48    49    1
    34    50    49    1
    35    16    24   ar
    36    18    20   ar
    37     3    55    1
    38    49    51    2
    39    44    41    1
    40    55    56    1
    41    55    53    2
    42    51    52    1
    43    51    53    1
    44    24    35    1
    45    24    22   ar
    46    20    21    1
    47    20    22   ar
    48    36    35    1
    49    53    54    1
    50    41    35    1
    51    41    42    1
    52    41    43    1
    53    35    37    1
    54    22    23    1
    55    37    38    1
    56    37    39    1
    57    37    40    1
