@<TRIPOS>MOLECULE
1,2,3
 49 49 0 0 0
SMALL
GASTEIGER

@<TRIPOS>ATOM
      1 N           1.1234    2.5596    3.2213 N.3     1  UNL1        0.0000
      2 N           4.0892    2.5201    2.8330 N.3     1  UNL1        0.0000
      3 N           2.3375    0.0523    2.3641 N.pl3   1  UNL1        0.0000
      4 SI         -0.2125    2.5728    4.2807 Si      1  UNL1        0.0000
      5 SI          5.6614    1.8747    2.9881 Si      1  UNL1        0.0000
      6 C           2.4880   -1.2618    2.5464 C.3     1  UNL1        0.0000
      7 C           2.8362   -2.1197    1.5222 C.2     1  UNL1        0.0000
      8 C           3.0656   -1.5728    0.2624 C.2     1  UNL1        0.0000
      9 C           2.9136   -0.2093    0.0790 C.2     1  UNL1        0.0000
     10 C           2.5323    0.6014    1.1519 C.2     1  UNL1        0.0000
     11 C           2.2956    2.0825    1.0378 C.3     1  UNL1        0.0000
     12 C           0.9889    2.4590    1.8032 C.3     1  UNL1        0.0000
     13 C           3.5130    2.9213    1.5910 C.3     1  UNL1        0.0000
     14 C           2.1000    2.5046   -0.4271 C.3     1  UNL1        0.0000
     15 C          -0.8203    0.7585    4.5342 C.3     1  UNL1        0.0000
     16 C           0.5326    3.3412    5.8641 C.3     1  UNL1        0.0000
     17 C          -1.7047    3.6082    3.6588 C.3     1  UNL1        0.0000
     18 C           6.2285    2.4220    4.7288 C.3     1  UNL1        0.0000
     19 C           5.6874   -0.0537    2.8773 C.3     1  UNL1        0.0000
     20 C           6.8759    2.5160    1.6479 C.3     1  UNL1        0.0000
     21 H           2.2953   -1.6167    3.5569 H       1  UNL1        0.0000
     22 H           2.9380   -3.1787    1.6972 H       1  UNL1        0.0000
     23 H           3.3564   -2.2025   -0.5650 H       1  UNL1        0.0000
     24 H           3.0898    0.2131   -0.8963 H       1  UNL1        0.0000
     25 H           0.6555    3.4302    1.3955 H       1  UNL1        0.0000
     26 H           0.2130    1.7202    1.5053 H       1  UNL1        0.0000
     27 H           3.1275    3.9526    1.6810 H       1  UNL1        0.0000
     28 H           4.2714    2.9295    0.7912 H       1  UNL1        0.0000
     29 H           1.8775    3.5688   -0.4715 H       1  UNL1        0.0000
     30 H           2.9970    2.3362   -1.0195 H       1  UNL1        0.0000
     31 H           1.2685    1.9644   -0.8780 H       1  UNL1        0.0000
     32 H          -1.3688    0.6143    5.4593 H       1  UNL1        0.0000
     33 H           0.0623    0.1135    4.5498 H       1  UNL1        0.0000
     34 H          -1.4663    0.4330    3.7216 H       1  UNL1        0.0000
     35 H           0.1681    2.8566    6.7630 H       1  UNL1        0.0000
     36 H           0.3089    4.3999    5.9506 H       1  UNL1        0.0000
     37 H           1.6201    3.2131    5.8057 H       1  UNL1        0.0000
     38 H          -2.5060    3.6295    4.3893 H       1  UNL1        0.0000
     39 H          -1.4130    4.6346    3.4604 H       1  UNL1        0.0000
     40 H          -2.1101    3.1979    2.7388 H       1  UNL1        0.0000
     41 H           6.7508    3.3729    4.7088 H       1  UNL1        0.0000
     42 H           5.3386    2.5326    5.3487 H       1  UNL1        0.0000
     43 H           6.8868    1.6948    5.1912 H       1  UNL1        0.0000
     44 H           6.6476   -0.4741    3.1603 H       1  UNL1        0.0000
     45 H           4.9303   -0.4445    3.5600 H       1  UNL1        0.0000
     46 H           5.4611   -0.4123    1.8733 H       1  UNL1        0.0000
     47 H           7.8992    2.2496    1.8878 H       1  UNL1        0.0000
     48 H           6.8282    3.5972    1.5674 H       1  UNL1        0.0000
     49 H           6.6532    2.1001    0.6694 H       1  UNL1        0.0000
@<TRIPOS>BOND
     1    30    14    1
     2    24     9    1
     3    31    14    1
     4    23     8    1
     5    29    14    1
     6    14    11    1
     7     9     8    1
     8     9    10    2
     9     8     7    2
    10    49    20    1
    11    28    13    1
    12    11    10    1
    13    11    13    1
    14    11    12    1
    15    10     3    1
    16    25    12    1
    17    26    12    1
    18     7    22    1
    19     7     6    1
    20    48    20    1
    21    13    27    1
    22    13     2    1
    23    20    47    1
    24    20     5    1
    25    12     1    1
    26    46    19    1
    27     3     6    1
    28     6    21    1
    29    40    17    1
    30     2     5    1
    31    19     5    1
    32    19    44    1
    33    19    45    1
    34     5    18    1
    35     1     4    1
    36    39    17    1
    37    17     4    1
    38    17    38    1
    39    34    15    1
    40     4    15    1
    41     4    16    1
    42    15    33    1
    43    15    32    1
    44    41    18    1
    45    18    43    1
    46    18    42    1
    47    37    16    1
    48    16    36    1
    49    16    35    1
