@<TRIPOS>MOLECULE
1,2,3
 49 49 0 0 0
SMALL
GASTEIGER

@<TRIPOS>ATOM
      1 N          -0.2840    0.6595    8.0292 N.3     1  UNL1        0.0000
      2 N          -1.8391    3.5524    7.7857 N.3     1  UNL1        0.0000
      3 N           0.7618    3.1957    7.4709 N.pl3   1  UNL1        0.0000
      4 SI          0.7717   -0.5149    7.3670 Si      1  UNL1        0.0000
      5 SI         -1.9609    5.1865    7.2913 Si      1  UNL1        0.0000
      6 C           1.6665    3.7732    6.6806 C.3     1  UNL1        0.0000
      7 C           2.7206    4.5081    7.1813 C.2     1  UNL1        0.0000
      8 C           2.8322    4.6378    8.5642 C.2     1  UNL1        0.0000
      9 C           1.8815    4.0507    9.3760 C.2     1  UNL1        0.0000
     10 C           0.8312    3.3270    8.8044 C.2     1  UNL1        0.0000
     11 C          -0.2579    2.6633    9.5877 C.3     1  UNL1        0.0000
     12 C          -0.1739    1.1118    9.3750 C.3     1  UNL1        0.0000
     13 C          -1.6844    3.1991    9.1569 C.3     1  UNL1        0.0000
     14 C          -0.1305    2.9060   11.0974 C.3     1  UNL1        0.0000
     15 C          -0.1458   -1.3410    5.9135 C.3     1  UNL1        0.0000
     16 C           1.2429   -1.8537    8.6590 C.3     1  UNL1        0.0000
     17 C           2.4251    0.2795    6.7713 C.3     1  UNL1        0.0000
     18 C          -1.5502    5.2464    5.4280 C.3     1  UNL1        0.0000
     19 C          -0.7497    6.3658    8.2212 C.3     1  UNL1        0.0000
     20 C          -3.7252    5.8667    7.6268 C.3     1  UNL1        0.0000
     21 H           1.5143    3.6270    5.6135 H       1  UNL1        0.0000
     22 H           3.4387    4.9658    6.5199 H       1  UNL1        0.0000
     23 H           3.6477    5.1961    8.9991 H       1  UNL1        0.0000
     24 H           1.9590    4.1568   10.4453 H       1  UNL1        0.0000
     25 H          -0.9905    0.6803    9.9874 H       1  UNL1        0.0000
     26 H           0.7705    0.7825    9.8438 H       1  UNL1        0.0000
     27 H          -1.9005    4.0563    9.8148 H       1  UNL1        0.0000
     28 H          -2.4036    2.4025    9.4321 H       1  UNL1        0.0000
     29 H          -0.9706    2.4409   11.6103 H       1  UNL1        0.0000
     30 H          -0.1449    3.9697   11.3283 H       1  UNL1        0.0000
     31 H           0.7842    2.4673   11.4930 H       1  UNL1        0.0000
     32 H           0.5186   -2.0005    5.3663 H       1  UNL1        0.0000
     33 H          -0.9886   -1.9350    6.2545 H       1  UNL1        0.0000
     34 H          -0.5195   -0.5909    5.2217 H       1  UNL1        0.0000
     35 H           1.7939   -2.6646    8.1961 H       1  UNL1        0.0000
     36 H           1.8670   -1.4461    9.4487 H       1  UNL1        0.0000
     37 H           0.3603   -2.2799    9.1253 H       1  UNL1        0.0000
     38 H           3.0968   -0.4515    6.3332 H       1  UNL1        0.0000
     39 H           2.9556    0.7616    7.5912 H       1  UNL1        0.0000
     40 H           2.2172    1.0387    6.0187 H       1  UNL1        0.0000
     41 H          -0.8566    6.0483    5.1959 H       1  UNL1        0.0000
     42 H          -2.4427    5.4094    4.8337 H       1  UNL1        0.0000
     43 H          -1.1069    4.2971    5.1189 H       1  UNL1        0.0000
     44 H          -0.9839    7.4061    8.0211 H       1  UNL1        0.0000
     45 H          -0.8101    6.2249    9.2975 H       1  UNL1        0.0000
     46 H           0.2841    6.1996    7.9264 H       1  UNL1        0.0000
     47 H          -3.8281    6.8815    7.2577 H       1  UNL1        0.0000
     48 H          -3.9519    5.8806    8.6891 H       1  UNL1        0.0000
     49 H          -4.4813    5.2600    7.1378 H       1  UNL1        0.0000
@<TRIPOS>BOND
     1    42    18    1
     2    43    18    1
     3    41    18    1
     4    34    15    1
     5    32    15    1
     6    18     5    1
     7    21     6    1
     8    15    33    1
     9    15     4    1
    10    40    17    1
    11    38    17    1
    12    22     7    1
    13     6     7    1
    14     6     3    1
    15    17     4    1
    16    17    39    1
    17    49    20    1
    18     7     8    2
    19    47    20    1
    20     5    20    1
    21     5     2    1
    22     5    19    1
    23     4     1    1
    24     4    16    1
    25     3    10    1
    26    20    48    1
    27     2    13    1
    28    46    19    1
    29    44    19    1
    30     1    12    1
    31    35    16    1
    32    19    45    1
    33     8    23    1
    34     8     9    1
    35    16    37    1
    36    16    36    1
    37    10     9    2
    38    10    11    1
    39    13    28    1
    40    13    11    1
    41    13    27    1
    42    12    11    1
    43    12    26    1
    44    12    25    1
    45     9    24    1
    46    11    14    1
    47    14    30    1
    48    14    31    1
    49    14    29    1
