@<TRIPOS>MOLECULE
1,2,3
 49 49 0 0 0
SMALL
GASTEIGER

@<TRIPOS>ATOM
      1 N           9.2622    3.3185   16.0531 N.3     1  UNL1        0.0000
      2 N           7.8819    5.6449   17.1356 N.3     1  UNL1        0.0000
      3 N           6.1556    3.6625   17.0968 N.pl3   1  UNL1        0.0000
      4 SI         10.8918    3.5190   15.5004 Si      1  UNL1        0.0000
      5 SI          7.2128    6.9318   18.0444 Si      1  UNL1        0.0000
      6 C           5.1330    3.4790   17.9203 C.3     1  UNL1        0.0000
      7 C           3.8201    3.6989   17.5496 C.2     1  UNL1        0.0000
      8 C           3.5725    4.1299   16.2537 C.2     1  UNL1        0.0000
      9 C           4.6405    4.3351   15.3996 C.2     1  UNL1        0.0000
     10 C           5.9361    4.0914   15.8523 C.2     1  UNL1        0.0000
     11 C           7.1782    4.3691   15.0621 C.3     1  UNL1        0.0000
     12 C           8.1608    3.1482   15.1522 C.3     1  UNL1        0.0000
     13 C           7.8051    5.6553   15.7036 C.3     1  UNL1        0.0000
     14 C           6.9012    4.6626   13.5856 C.3     1  UNL1        0.0000
     15 C          11.0751    3.0387   13.6528 C.3     1  UNL1        0.0000
     16 C          11.9801    2.3503   16.5534 C.3     1  UNL1        0.0000
     17 C          11.4611    5.3415   15.7076 C.3     1  UNL1        0.0000
     18 C           8.4854    8.3382   18.3419 C.3     1  UNL1        0.0000
     19 C           6.6605    6.2046   19.7295 C.3     1  UNL1        0.0000
     20 C           5.6696    7.7237   17.2196 C.3     1  UNL1        0.0000
     21 H           5.3856    3.1285   18.9135 H       1  UNL1        0.0000
     22 H           3.0165    3.5338   18.2498 H       1  UNL1        0.0000
     23 H           2.5620    4.3073   15.9154 H       1  UNL1        0.0000
     24 H           4.4639    4.6743   14.3924 H       1  UNL1        0.0000
     25 H           8.5326    2.9539   14.1402 H       1  UNL1        0.0000
     26 H           7.5738    2.2592   15.4440 H       1  UNL1        0.0000
     27 H           8.8133    5.7537   15.2712 H       1  UNL1        0.0000
     28 H           7.2062    6.5046   15.3476 H       1  UNL1        0.0000
     29 H           7.8406    4.8724   13.0773 H       1  UNL1        0.0000
     30 H           6.2602    5.5339   13.4637 H       1  UNL1        0.0000
     31 H           6.4314    3.8071   13.1018 H       1  UNL1        0.0000
     32 H          12.1207    3.0703   13.3678 H       1  UNL1        0.0000
     33 H          10.7154    2.0335   13.4565 H       1  UNL1        0.0000
     34 H          10.5421    3.7198   12.9963 H       1  UNL1        0.0000
     35 H          12.9945    2.7243   16.6430 H       1  UNL1        0.0000
     36 H          11.5482    2.2724   17.5490 H       1  UNL1        0.0000
     37 H          12.0404    1.3536   16.1288 H       1  UNL1        0.0000
     38 H          12.5278    5.4084   15.8942 H       1  UNL1        0.0000
     39 H          10.9401    5.7751   16.5595 H       1  UNL1        0.0000
     40 H          11.2505    5.9484   14.8307 H       1  UNL1        0.0000
     41 H           8.1087    9.0733   19.0457 H       1  UNL1        0.0000
     42 H           9.4148    7.9398   18.7381 H       1  UNL1        0.0000
     43 H           8.7211    8.8585   17.4184 H       1  UNL1        0.0000
     44 H           6.6952    6.9546   20.5128 H       1  UNL1        0.0000
     45 H           7.3307    5.3909   20.0145 H       1  UNL1        0.0000
     46 H           5.6437    5.8202   19.6926 H       1  UNL1        0.0000
     47 H           5.1620    8.3903   17.9084 H       1  UNL1        0.0000
     48 H           4.9510    6.9738   16.8977 H       1  UNL1        0.0000
     49 H           5.9464    8.3106   16.3493 H       1  UNL1        0.0000
@<TRIPOS>BOND
     1    34    15    1
     2    29    14    1
     3    31    14    1
     4    32    15    1
     5    33    15    1
     6    30    14    1
     7    14    11    1
     8    15     4    1
     9    25    12    1
    10    24     9    1
    11    40    17    1
    12    11    12    1
    13    11    13    1
    14    11    10    1
    15    12    26    1
    16    12     1    1
    17    27    13    1
    18    28    13    1
    19     9    10    2
    20     9     8    1
    21     4    17    1
    22     4     1    1
    23     4    16    1
    24    13     2    1
    25    17    38    1
    26    17    39    1
    27    10     3    1
    28    23     8    1
    29    37    16    1
    30     8     7    2
    31    49    20    1
    32    16    35    1
    33    16    36    1
    34    48    20    1
    35     3     6    1
    36     2     5    1
    37    20    47    1
    38    20     5    1
    39    43    18    1
    40     7     6    1
    41     7    22    1
    42     6    21    1
    43     5    18    1
    44     5    19    1
    45    18    42    1
    46    18    41    1
    47    46    19    1
    48    19    45    1
    49    19    44    1
