@<TRIPOS>MOLECULE
1,2,3
 49 49 0 0 0
SMALL
GASTEIGER

@<TRIPOS>ATOM
      1 N           2.7234   -0.0106    3.2372 N.3     1  UNL1        0.0000
      2 N           1.7577    1.4764    5.7039 N.3     1  UNL1        0.0000
      3 N          -0.1078    1.3002    3.6159 N.pl3   1  UNL1        0.0000
      4 SI          3.9578   -0.7261    2.2411 Si      1  UNL1        0.0000
      5 SI          1.2027    2.6173    6.8622 Si      1  UNL1        0.0000
      6 C          -1.0608    2.1363    3.2305 C.3     1  UNL1        0.0000
      7 C          -2.3908    1.9802    3.5710 C.2     1  UNL1        0.0000
      8 C          -2.7296    0.9030    4.3753 C.2     1  UNL1        0.0000
      9 C          -1.7358    0.0319    4.7843 C.2     1  UNL1        0.0000
     10 C          -0.4217    0.2500    4.3749 C.2     1  UNL1        0.0000
     11 C           0.7367   -0.6346    4.7393 C.3     1  UNL1        0.0000
     12 C           1.5955   -0.8893    3.4623 C.3     1  UNL1        0.0000
     13 C           1.5542    0.0642    5.8711 C.3     1  UNL1        0.0000
     14 C           0.2820   -1.9997    5.2703 C.3     1  UNL1        0.0000
     15 C           5.3666    0.5103    1.9379 C.3     1  UNL1        0.0000
     16 C           4.6376   -2.3243    3.0686 C.3     1  UNL1        0.0000
     17 C           3.2466   -1.2839    0.5417 C.3     1  UNL1        0.0000
     18 C           2.3810    4.1189    6.7831 C.3     1  UNL1        0.0000
     19 C          -0.6060    3.2121    6.5620 C.3     1  UNL1        0.0000
     20 C           1.2299    1.8764    8.6281 C.3     1  UNL1        0.0000
     21 H          -0.7321    2.9638    2.6161 H       1  UNL1        0.0000
     22 H          -3.1339    2.6808    3.2247 H       1  UNL1        0.0000
     23 H          -3.7537    0.7427    4.6793 H       1  UNL1        0.0000
     24 H          -1.9880   -0.8083    5.4090 H       1  UNL1        0.0000
     25 H           1.9689   -1.9165    3.5343 H       1  UNL1        0.0000
     26 H           0.9139   -0.8683    2.5938 H       1  UNL1        0.0000
     27 H           2.5306   -0.4423    5.9100 H       1  UNL1        0.0000
     28 H           1.0360   -0.1347    6.8147 H       1  UNL1        0.0000
     29 H           1.1547   -2.6007    5.5165 H       1  UNL1        0.0000
     30 H          -0.3123   -1.8999    6.1757 H       1  UNL1        0.0000
     31 H          -0.3019   -2.5309    4.5203 H       1  UNL1        0.0000
     32 H           6.0727    0.1011    1.2230 H       1  UNL1        0.0000
     33 H           5.9068    0.7350    2.8494 H       1  UNL1        0.0000
     34 H           4.9963    1.4512    1.5475 H       1  UNL1        0.0000
     35 H           5.6673   -2.4923    2.7714 H       1  UNL1        0.0000
     36 H           4.6173   -2.2686    4.1524 H       1  UNL1        0.0000
     37 H           4.0712   -3.2017    2.7697 H       1  UNL1        0.0000
     38 H           4.0130   -1.7721   -0.0518 H       1  UNL1        0.0000
     39 H           2.4316   -1.9921    0.6637 H       1  UNL1        0.0000
     40 H           2.8700   -0.4463   -0.0365 H       1  UNL1        0.0000
     41 H           1.8627    5.0383    7.0342 H       1  UNL1        0.0000
     42 H           3.2039    4.0092    7.4812 H       1  UNL1        0.0000
     43 H           2.8117    4.2280    5.7897 H       1  UNL1        0.0000
     44 H          -0.8943    3.9592    7.2950 H       1  UNL1        0.0000
     45 H          -1.3177    2.3933    6.6372 H       1  UNL1        0.0000
     46 H          -0.7239    3.6578    5.5784 H       1  UNL1        0.0000
     47 H           1.1116    2.6616    9.3665 H       1  UNL1        0.0000
     48 H           2.1659    1.3681    8.8334 H       1  UNL1        0.0000
     49 H           0.4235    1.1659    8.7819 H       1  UNL1        0.0000
@<TRIPOS>BOND
     1    38    17    1
     2    40    17    1
     3    17    39    1
     4    17     4    1
     5    32    15    1
     6    34    15    1
     7    15     4    1
     8    15    33    1
     9     4    16    1
    10     4     1    1
    11    26    12    1
    12    21     6    1
    13    37    16    1
    14    35    16    1
    15    16    36    1
    16    22     7    1
    17     6     7    1
    18     6     3    1
    19     1    12    1
    20    12    25    1
    21    12    11    1
    22     7     8    2
    23     3    10    1
    24    10    11    1
    25    10     9    2
    26     8    23    1
    27     8     9    1
    28    31    14    1
    29    11    14    1
    30    11    13    1
    31     9    24    1
    32    14    29    1
    33    14    30    1
    34    46    19    1
    35     2    13    1
    36     2     5    1
    37    43    18    1
    38    13    27    1
    39    13    28    1
    40    19    45    1
    41    19     5    1
    42    19    44    1
    43    18     5    1
    44    18    41    1
    45    18    42    1
    46     5    20    1
    47    20    49    1
    48    20    48    1
    49    20    47    1
