@<TRIPOS>MOLECULE
3,5,7
 44 46 0 0 0
SMALL
GASTEIGER

@<TRIPOS>ATOM
      1 B          -0.1016    5.9098    4.9590 B       1  UNL1        0.0000
      2 H          -0.8148    6.7581    5.3571 H       1  UNL1        0.0000
      3 N          -0.2720    3.9188    3.4224 N.3     1  UNL1        0.0000
      4 N          -0.8888    4.9192    4.0840 N.pl3   1  UNL1        0.0000
      5 N           1.9289    5.7409    3.4750 N.3     1  UNL1        0.0000
      6 N           1.0246    6.5181    4.1053 N.pl3   1  UNL1        0.0000
      7 N           1.3645    4.1087    5.8952 N.3     1  UNL1        0.0000
      8 N           0.5281    5.1414    6.1239 N.pl3   1  UNL1        0.0000
      9 C          -1.2013    3.2291    2.7565 C.3     1  UNL1        0.0000
     10 C          -0.8650    2.0589    1.9150 C.3     1  UNL1        0.0000
     11 H          -0.6426    1.1978    2.5451 H       1  UNL1        0.0000
     12 H           0.0317    2.2787    1.3376 H       1  UNL1        0.0000
     13 H          -1.6952    1.8149    1.2580 H       1  UNL1        0.0000
     14 C          -2.4489    3.8012    3.0014 C.2     1  UNL1        0.0000
     15 H          -3.3954    3.4811    2.6170 H       1  UNL1        0.0000
     16 C          -2.2111    4.8709    3.8492 C.2     1  UNL1        0.0000
     17 C          -3.1989    5.8196    4.4248 C.3     1  UNL1        0.0000
     18 H          -3.1763    5.7860    5.5122 H       1  UNL1        0.0000
     19 H          -4.1956    5.5525    4.0853 H       1  UNL1        0.0000
     20 H          -2.9814    6.8393    4.1130 H       1  UNL1        0.0000
     21 C           2.7871    6.5399    2.8364 C.3     1  UNL1        0.0000
     22 C           3.9135    6.0106    2.0355 C.3     1  UNL1        0.0000
     23 H           4.6909    5.6243    2.6947 H       1  UNL1        0.0000
     24 H           4.3324    6.7932    1.4092 H       1  UNL1        0.0000
     25 H           3.5609    5.1786    1.4279 H       1  UNL1        0.0000
     26 C           2.4238    7.8663    3.0657 C.2     1  UNL1        0.0000
     27 H           2.9104    8.7449    2.6949 H       1  UNL1        0.0000
     28 C           1.3010    7.8131    3.8757 C.2     1  UNL1        0.0000
     29 C           0.5095    8.9474    4.4179 C.3     1  UNL1        0.0000
     30 H           0.5063    8.9302    5.5059 H       1  UNL1        0.0000
     31 H          -0.5221    8.8956    4.0755 H       1  UNL1        0.0000
     32 H           0.9455    9.8841    4.0823 H       1  UNL1        0.0000
     33 C           1.7533    3.6285    7.0732 C.3     1  UNL1        0.0000
     34 C           2.6839    2.4801    7.2141 C.3     1  UNL1        0.0000
     35 H           2.2848    1.6037    6.7039 H       1  UNL1        0.0000
     36 H           2.8290    2.2481    8.2661 H       1  UNL1        0.0000
     37 H           3.6474    2.7164    6.7627 H       1  UNL1        0.0000
     38 C           1.1502    4.3733    8.0916 C.2     1  UNL1        0.0000
     39 H           1.2631    4.2341    9.1475 H       1  UNL1        0.0000
     40 C           0.3796    5.3254    7.4511 C.2     1  UNL1        0.0000
     41 C          -0.4727    6.3817    8.0565 C.3     1  UNL1        0.0000
     42 H          -0.1398    7.3714    7.7483 H       1  UNL1        0.0000
     43 H          -0.4147    6.3137    9.1394 H       1  UNL1        0.0000
     44 H          -1.5113    6.2639    7.7521 H       1  UNL1        0.0000
@<TRIPOS>BOND
     1    13    10    1
     2    12    10    1
     3    24    22    1
     4    25    22    1
     5    10    11    1
     6    10     9    1
     7    22    23    1
     8    22    21    1
     9    15    14    1
    10    27    26    1
    11     9    14    1
    12     9     3    1
    13    21    26    1
    14    21     5    1
    15    14    16    2
    16    26    28    2
    17     3     4    1
    18     5     6    1
    19    16     4    1
    20    16    17    1
    21    28     6    1
    22    28    29    1
    23    31    29    1
    24    32    29    1
    25     4     1    1
    26    19    17    1
    27     6     1    1
    28    20    17    1
    29    29    30    1
    30    17    18    1
    31     1     2    1
    32     1     8    1
    33     7     8    1
    34     7    33    1
    35     8    40    1
    36    35    34    1
    37    37    34    1
    38    33    34    1
    39    33    38    1
    40    34    36    1
    41    40    41    1
    42    40    38    2
    43    42    41    1
    44    44    41    1
    45    41    43    1
    46    38    39    1
