@<TRIPOS>MOLECULE
3,4,5
 51 50 0 0 0
SMALL
GASTEIGER

@<TRIPOS>ATOM
      1 SI          4.3704   -0.5605    7.1970 Si      1  UNL1        0.0000
      2 SI          2.7717    5.0388    5.3073 Si      1  UNL1        0.0000
      3 N           3.3841    0.6783    6.5037 N.3     1  UNL1        0.0000
      4 N           1.6830    0.8792    4.0632 N.3     1  UNL1        0.0000
      5 N           2.8702    3.6197    4.3248 N.3     1  UNL1        0.0000
      6 C           2.1284    1.0039    7.1401 C.3     1  UNL1        0.0000
      7 C           0.8937    0.4371    6.4204 C.3     1  UNL1        0.0000
      8 C           0.6289    1.0820    5.0602 C.3     1  UNL1        0.0000
      9 C           1.2852    1.4514    2.7698 C.3     1  UNL1        0.0000
     10 C           1.0982    2.9649    2.7233 C.3     1  UNL1        0.0000
     11 C           2.4034    3.7343    2.9584 C.3     1  UNL1        0.0000
     12 C           1.9223   -0.5463    3.8531 C.3     1  UNL1        0.0000
     13 C           3.7406   -2.3399    6.8126 C.3     1  UNL1        0.0000
     14 C           4.3879   -0.4207    9.1100 C.3     1  UNL1        0.0000
     15 C           6.1527   -0.3641    6.5571 C.3     1  UNL1        0.0000
     16 C           1.1325    5.9823    4.9876 C.3     1  UNL1        0.0000
     17 C           4.2209    6.2285    4.9070 C.3     1  UNL1        0.0000
     18 C           2.7732    4.6558    7.1790 C.3     1  UNL1        0.0000
     19 H           2.0089    2.0945    7.1927 H       1  UNL1        0.0000
     20 H           2.1081    0.6317    8.1703 H       1  UNL1        0.0000
     21 H           0.0189    0.6349    7.0462 H       1  UNL1        0.0000
     22 H           0.9944   -0.6444    6.3298 H       1  UNL1        0.0000
     23 H          -0.3289    0.6956    4.6687 H       1  UNL1        0.0000
     24 H           0.5256    2.1595    5.2135 H       1  UNL1        0.0000
     25 H           0.3512    0.9686    2.4337 H       1  UNL1        0.0000
     26 H           2.0785    1.1988    2.0614 H       1  UNL1        0.0000
     27 H           0.7281    3.2121    1.7255 H       1  UNL1        0.0000
     28 H           0.3512    3.2986    3.4439 H       1  UNL1        0.0000
     29 H           3.1684    3.3413    2.2762 H       1  UNL1        0.0000
     30 H           2.2324    4.7802    2.6866 H       1  UNL1        0.0000
     31 H           0.9933   -1.0751    3.6012 H       1  UNL1        0.0000
     32 H           2.3603   -0.9761    4.7483 H       1  UNL1        0.0000
     33 H           2.6318   -0.6671    3.0380 H       1  UNL1        0.0000
     34 H           2.7004   -2.4720    7.0980 H       1  UNL1        0.0000
     35 H           4.3212   -3.0614    7.3782 H       1  UNL1        0.0000
     36 H           3.8349   -2.6021    5.7635 H       1  UNL1        0.0000
     37 H           4.5199    0.6068    9.4358 H       1  UNL1        0.0000
     38 H           5.2048   -1.0024    9.5235 H       1  UNL1        0.0000
     39 H           3.4698   -0.7957    9.5525 H       1  UNL1        0.0000
     40 H           6.7142   -1.2813    6.7005 H       1  UNL1        0.0000
     41 H           6.6706    0.4261    7.0911 H       1  UNL1        0.0000
     42 H           6.1795   -0.1147    5.5005 H       1  UNL1        0.0000
     43 H           1.0716    6.3452    3.9675 H       1  UNL1        0.0000
     44 H           1.0675    6.8446    5.6419 H       1  UNL1        0.0000
     45 H           0.2557    5.3683    5.1700 H       1  UNL1        0.0000
     46 H           5.1754    5.7676    5.1434 H       1  UNL1        0.0000
     47 H           4.1475    7.1502    5.4758 H       1  UNL1        0.0000
     48 H           4.2348    6.4911    3.8526 H       1  UNL1        0.0000
     49 H           1.8158    4.2803    7.5313 H       1  UNL1        0.0000
     50 H           2.9701    5.5753    7.7209 H       1  UNL1        0.0000
     51 H           3.5498    3.9520    7.4616 H       1  UNL1        0.0000
@<TRIPOS>BOND
     1    27    10    1
     2    26     9    1
     3    29    11    1
     4    25     9    1
     5    30    11    1
     6    10     9    1
     7    10    11    1
     8    10    28    1
     9     9     4    1
    10    11     5    1
    11    33    12    1
    12    31    12    1
    13    48    17    1
    14    12     4    1
    15    12    32    1
    16    43    16    1
    17     4     8    1
    18     5     2    1
    19    23     8    1
    20    17    46    1
    21    17     2    1
    22    17    47    1
    23    16    45    1
    24    16     2    1
    25    16    44    1
    26     8    24    1
    27     8     7    1
    28     2    18    1
    29    42    15    1
    30    36    13    1
    31    22     7    1
    32     7    21    1
    33     7     6    1
    34     3     6    1
    35     3     1    1
    36    15    40    1
    37    15    41    1
    38    15     1    1
    39    13    34    1
    40    13     1    1
    41    13    35    1
    42     6    19    1
    43     6    20    1
    44    18    51    1
    45    18    49    1
    46    18    50    1
    47     1    14    1
    48    14    37    1
    49    14    38    1
    50    14    39    1
