@<TRIPOS>MOLECULE
3,4,5
 45 44 0 0 0
SMALL
GASTEIGER

@<TRIPOS>ATOM
      1 SI         13.1802   -0.0391   14.0325 Si      1  UNL1        0.0000
      2 SI         10.2539    4.9077   15.9546 Si      1  UNL1        0.0000
      3 N          11.6369    0.6459   13.6276 N.3     1  UNL1        0.0000
      4 N           9.0092    1.3264   14.6578 N.3     1  UNL1        0.0000
      5 N          10.7485    3.2592   15.7931 N.3     1  UNL1        0.0000
      6 C          10.4813   -0.1923   13.4142 C.3     1  UNL1        0.0000
      7 C           9.4979   -0.0522   14.5846 C.3     1  UNL1        0.0000
      8 C           8.8013    1.7711   16.0363 C.3     1  UNL1        0.0000
      9 C          10.1333    2.2586   16.6306 C.3     1  UNL1        0.0000
     10 C           7.8011    1.4843   13.8596 C.3     1  UNL1        0.0000
     11 C          13.1786   -1.9431   13.8302 C.3     1  UNL1        0.0000
     12 C          13.5839    0.3531   15.8636 C.3     1  UNL1        0.0000
     13 C          14.4954    0.6949   12.8565 C.3     1  UNL1        0.0000
     14 C           8.5312    5.3158   15.1914 C.3     1  UNL1        0.0000
     15 C          10.1855    5.3804   17.8087 C.3     1  UNL1        0.0000
     16 C          11.5092    6.0297   15.0571 C.3     1  UNL1        0.0000
     17 H          10.7614   -1.2437   13.3156 H       1  UNL1        0.0000
     18 H           9.9788    0.1012   12.4799 H       1  UNL1        0.0000
     19 H           8.6661   -0.7656   14.4841 H       1  UNL1        0.0000
     20 H          10.0492   -0.2886   15.4992 H       1  UNL1        0.0000
     21 H           8.3602    0.9782   16.6598 H       1  UNL1        0.0000
     22 H           8.1140    2.6195   16.0238 H       1  UNL1        0.0000
     23 H           9.9433    2.6450   17.6373 H       1  UNL1        0.0000
     24 H          10.8260    1.4113   16.7251 H       1  UNL1        0.0000
     25 H           6.9618    0.9028   14.2671 H       1  UNL1        0.0000
     26 H           7.9892    1.1538   12.8386 H       1  UNL1        0.0000
     27 H           7.5170    2.5357   13.8249 H       1  UNL1        0.0000
     28 H          12.4806   -2.4297   14.5038 H       1  UNL1        0.0000
     29 H          14.1658   -2.3317   14.0524 H       1  UNL1        0.0000
     30 H          12.9324   -2.2422   12.8168 H       1  UNL1        0.0000
     31 H          13.2505    1.3606   16.0955 H       1  UNL1        0.0000
     32 H          14.6515    0.3088   16.0503 H       1  UNL1        0.0000
     33 H          13.1047   -0.3366   16.5536 H       1  UNL1        0.0000
     34 H          14.0705    1.5133   12.2853 H       1  UNL1        0.0000
     35 H          14.8763   -0.0429   12.1578 H       1  UNL1        0.0000
     36 H          15.3380    1.0847   13.4162 H       1  UNL1        0.0000
     37 H           8.4608    4.9519   14.1684 H       1  UNL1        0.0000
     38 H           8.3736    6.3896   15.1597 H       1  UNL1        0.0000
     39 H           7.7058    4.8918   15.7584 H       1  UNL1        0.0000
     40 H           9.3210    4.9511   18.3047 H       1  UNL1        0.0000
     41 H          10.1183    6.4565   17.9179 H       1  UNL1        0.0000
     42 H          11.0726    5.0500   18.3382 H       1  UNL1        0.0000
     43 H          12.5038    5.9578   15.4812 H       1  UNL1        0.0000
     44 H          11.1959    7.0659   15.1307 H       1  UNL1        0.0000
     45 H          11.5786    5.7772   14.0021 H       1  UNL1        0.0000
@<TRIPOS>BOND
     1    35    13    1
     2    34    13    1
     3    18     6    1
     4    30    11    1
     5    26    10    1
     6    13    36    1
     7    13     1    1
     8    17     6    1
     9     6     3    1
    10     6     7    1
    11     3     1    1
    12    27    10    1
    13    11     1    1
    14    11    29    1
    15    11    28    1
    16    10    25    1
    17    10     4    1
    18    45    16    1
    19     1    12    1
    20    37    14    1
    21    19     7    1
    22     7     4    1
    23     7    20    1
    24     4     8    1
    25    16    44    1
    26    16    43    1
    27    16     2    1
    28    38    14    1
    29    14    39    1
    30    14     2    1
    31     5     2    1
    32     5     9    1
    33    12    32    1
    34    12    31    1
    35    12    33    1
    36     2    15    1
    37    22     8    1
    38     8     9    1
    39     8    21    1
    40     9    24    1
    41     9    23    1
    42    15    41    1
    43    15    40    1
    44    15    42    1
