@<TRIPOS>MOLECULE
1,2,3
 47 49 0 0 0
SMALL
GASTEIGER

@<TRIPOS>ATOM
      1 N          12.2510    6.2551    6.1421 N.ar    1  UNL1       -0.2525
      2 N          13.9269    4.1010    6.2059 N.pl3   1  UNL1       -0.2383
      3 N          11.6525    8.1227    4.2436 N.pl3   1  UNL1       -0.2383
      4 C          12.3322    5.4822    7.2528 C.ar    1  UNL1        0.0660
      5 C          11.4700    5.9799    8.2502 C.ar    1  UNL1       -0.0367
      6 C          10.8537    7.0943    7.7150 C.ar    1  UNL1       -0.0367
      7 C          11.3560    7.2386    6.4060 C.ar    1  UNL1        0.0660
      8 C          13.1868    4.3443    7.2297 C.3     1  UNL1        0.1101
      9 C          11.0993    8.2137    5.4016 C.3     1  UNL1        0.1101
     10 C          14.6412    2.8846    6.1962 C.ar    1  UNL1        0.0544
     11 C          16.0164    2.8715    6.4451 C.ar    1  UNL1       -0.0276
     12 C          16.6972    1.6639    6.3887 C.ar    1  UNL1       -0.0570
     13 C          16.0315    0.4871    6.1005 C.ar    1  UNL1       -0.0611
     14 C          14.6677    0.5082    5.8708 C.ar    1  UNL1       -0.0570
     15 C          13.9547    1.6965    5.9215 C.ar    1  UNL1       -0.0276
     16 C          16.7241    4.1459    6.7868 C.3     1  UNL1       -0.0379
     17 C          12.4805    1.7293    5.6551 C.3     1  UNL1       -0.0379
     18 C          11.4506    9.1867    3.3401 C.ar    1  UNL1        0.0544
     19 C          12.1471   10.3855    3.5287 C.ar    1  UNL1       -0.0276
     20 C          11.9771   11.4092    2.6086 C.ar    1  UNL1       -0.0570
     21 C          11.1251   11.2615    1.5292 C.ar    1  UNL1       -0.0611
     22 C          10.4266   10.0801    1.3628 C.ar    1  UNL1       -0.0570
     23 C          10.5741    9.0343    2.2620 C.ar    1  UNL1       -0.0276
     24 C          13.0832   10.5329    4.6893 C.3     1  UNL1       -0.0379
     25 C           9.8006    7.7621    2.1091 C.3     1  UNL1       -0.0379
     26 H          11.3312    5.5679    9.2314 H       1  UNL1        0.0637
     27 H          10.1306    7.7287    8.1906 H       1  UNL1        0.0637
     28 H          13.1824    3.6840    8.1021 H       1  UNL1        0.0606
     29 H          10.4258    9.0392    5.6508 H       1  UNL1        0.0606
     30 H          17.7611    1.6502    6.5761 H       1  UNL1        0.0621
     31 H          16.5734   -0.4455    6.0579 H       1  UNL1        0.0618
     32 H          14.1450   -0.4115    5.6504 H       1  UNL1        0.0621
     33 H          17.8020    4.0068    6.7596 H       1  UNL1        0.0278
     34 H          16.4453    4.9310    6.0849 H       1  UNL1        0.0278
     35 H          16.4452    4.4792    7.7874 H       1  UNL1        0.0278
     36 H          12.1380    0.7625    5.2941 H       1  UNL1        0.0278
     37 H          12.2626    2.4932    4.9073 H       1  UNL1        0.0278
     38 H          11.9225    1.9704    6.5601 H       1  UNL1        0.0278
     39 H          12.5189   12.3343    2.7431 H       1  UNL1        0.0621
     40 H          11.0039   12.0672    0.8209 H       1  UNL1        0.0618
     41 H           9.7541    9.9636    0.5254 H       1  UNL1        0.0621
     42 H          13.6650   11.4466    4.5943 H       1  UNL1        0.0278
     43 H          12.5375   10.5759    5.6320 H       1  UNL1        0.0278
     44 H          13.7573    9.6760    4.7249 H       1  UNL1        0.0278
     45 H           9.3081    7.7245    1.1409 H       1  UNL1        0.0278
     46 H           9.0395    7.6844    2.8864 H       1  UNL1        0.0278
     47 H          10.4652    6.9048    2.2087 H       1  UNL1        0.0278
@<TRIPOS>BOND
     1    41    22    1
     2    40    21    1
     3    45    25    1
     4    22    21   ar
     5    22    23   ar
     6    21    20   ar
     7    25    47    1
     8    25    23    1
     9    25    46    1
    10    23    18   ar
    11    20    39    1
    12    20    19   ar
    13    18    19   ar
    14    18     3    1
    15    19    24    1
    16     3     9    1
    17    42    24    1
    18    24    44    1
    19    24    43    1
    20    37    17    1
    21    36    17    1
    22     9    29    1
    23     9     7    1
    24    32    14    1
    25    17    15    1
    26    17    38    1
    27    14    15   ar
    28    14    13   ar
    29    15    10   ar
    30    31    13    1
    31    34    16    1
    32    13    12   ar
    33     1     7   ar
    34     1     4   ar
    35    10     2    1
    36    10    11   ar
    37     2     8    1
    38    12    11   ar
    39    12    30    1
    40     7     6   ar
    41    11    16    1
    42    33    16    1
    43    16    35    1
    44     8     4    1
    45     8    28    1
    46     4     5   ar
    47     6    27    1
    48     6     5   ar
    49     5    26    1
