@<TRIPOS>MOLECULE
2,4,6
 44 46 0 0 0
SMALL
GASTEIGER

@<TRIPOS>ATOM
      1 B          -2.9060    5.7647   15.3780 B       1  UNL1        0.0000
      2 N          -3.7680    8.0901   15.9525 N.3     1  UNL1        0.0000
      3 N          -3.7408    6.7637   16.2065 N.pl3   1  UNL1        0.0000
      4 N          -2.8105    6.9503   13.1382 N.3     1  UNL1        0.0000
      5 N          -3.2181    5.8886   13.8688 N.pl3   1  UNL1        0.0000
      6 N          -0.9451    7.3463   15.6456 N.3     1  UNL1        0.0000
      7 N          -1.4186    6.0808   15.5826 N.pl3   1  UNL1        0.0000
      8 C          -4.9947   10.0881   16.7442 C.3     1  UNL1        0.0000
      9 H          -4.4913   10.5578   15.8958 H       1  UNL1        0.0000
     10 H          -4.7335   10.5981   17.6719 H       1  UNL1        0.0000
     11 H          -6.0712   10.1840   16.6037 H       1  UNL1        0.0000
     12 C          -4.6299    8.6457   16.8042 C.3     1  UNL1        0.0000
     13 C          -5.1485    7.6618   17.6480 C.2     1  UNL1        0.0000
     14 H          -5.8587    7.7898   18.4397 H       1  UNL1        0.0000
     15 C          -4.5616    6.4796   17.2348 C.2     1  UNL1        0.0000
     16 C          -4.7715    5.1202   17.7995 C.3     1  UNL1        0.0000
     17 H          -5.4564    5.1817   18.6410 H       1  UNL1        0.0000
     18 H          -3.8297    4.6955   18.1412 H       1  UNL1        0.0000
     19 H          -5.1944    4.4517   17.0521 H       1  UNL1        0.0000
     20 C          -2.8467    7.6823   10.7755 C.3     1  UNL1        0.0000
     21 H          -2.8238    8.6968   11.1817 H       1  UNL1        0.0000
     22 H          -3.6138    7.6224   10.0077 H       1  UNL1        0.0000
     23 H          -1.8864    7.4516   10.3110 H       1  UNL1        0.0000
     24 C          -3.1444    6.7156   11.8675 C.3     1  UNL1        0.0000
     25 C          -3.7725    5.4729   11.7752 C.2     1  UNL1        0.0000
     26 H          -4.1573    5.0005   10.8940 H       1  UNL1        0.0000
     27 C          -3.8048    4.9799   13.0676 C.2     1  UNL1        0.0000
     28 C          -4.3983    3.7022   13.5421 C.3     1  UNL1        0.0000
     29 H          -4.8311    3.1700   12.6993 H       1  UNL1        0.0000
     30 H          -5.1799    3.8965   14.2742 H       1  UNL1        0.0000
     31 H          -3.6458    3.0698   14.0093 H       1  UNL1        0.0000
     32 C           1.2378    8.4254   16.1940 C.3     1  UNL1        0.0000
     33 H           0.6585    9.3408   16.1821 H       1  UNL1        0.0000
     34 H           2.0006    8.4759   15.4173 H       1  UNL1        0.0000
     35 H           1.7420    8.3227   17.1548 H       1  UNL1        0.0000
     36 C           0.3459    7.2568   15.9660 C.3     1  UNL1        0.0000
     37 C           0.7162    5.9136   16.0871 C.2     1  UNL1        0.0000
     38 H           1.6860    5.5270   16.3279 H       1  UNL1        0.0000
     39 C          -0.4345    5.1957   15.8339 C.2     1  UNL1        0.0000
     40 C          -0.6094    3.7193   15.8090 C.3     1  UNL1        0.0000
     41 H          -1.3005    3.3954   16.5853 H       1  UNL1        0.0000
     42 H           0.3515    3.2392   15.9742 H       1  UNL1        0.0000
     43 H          -1.0044    3.3982   14.8470 H       1  UNL1        0.0000
     44 H          -3.1397    4.6665   15.7375 H       1  UNL1        0.0000
@<TRIPOS>BOND
     1    22    20    1
     2    23    20    1
     3    20    21    1
     4    20    24    1
     5    26    25    1
     6    25    24    1
     7    25    27    2
     8    24     4    1
     9    29    28    1
    10    27    28    1
    11    27     5    1
    12     4     5    1
    13    28    31    1
    14    28    30    1
    15     5     1    1
    16    43    40    1
    17     1     7    1
    18     1    44    1
    19     1     3    1
    20    34    32    1
    21     7     6    1
    22     7    39    1
    23     6    36    1
    24    40    39    1
    25    40    42    1
    26    40    41    1
    27    39    37    2
    28     9     8    1
    29     2     3    1
    30     2    12    1
    31    36    37    1
    32    36    32    1
    33    37    38    1
    34    33    32    1
    35    32    35    1
    36     3    15    1
    37    11     8    1
    38     8    12    1
    39     8    10    1
    40    12    13    1
    41    19    16    1
    42    15    13    2
    43    15    16    1
    44    13    14    1
    45    16    18    1
    46    16    17    1
