@<TRIPOS>MOLECULE
1,3,5
 44 46 0 0 0
SMALL
GASTEIGER

@<TRIPOS>ATOM
      1 N          15.8392    3.8441    9.3999 N.3     1  UNL1        0.0000
      2 N          16.8027    4.1918   10.2833 N.pl3   1  UNL1        0.0000
      3 N          15.9828    6.9698    9.7752 N.3     1  UNL1        0.0000
      4 N          16.6219    6.5973   10.9065 N.pl3   1  UNL1        0.0000
      5 N          14.0039    5.0392   11.3541 N.3     1  UNL1        0.0000
      6 N          15.1514    4.8500   12.0411 N.pl3   1  UNL1        0.0000
      7 B          16.5449    5.1525   11.4516 B       1  UNL1        0.0000
      8 H          17.3639    5.0041   12.2865 H       1  UNL1        0.0000
      9 C          15.6159    2.1981    7.5365 C.3     1  UNL1        0.0000
     10 H          14.5688    2.4733    7.5702 H       1  UNL1        0.0000
     11 H          15.7160    1.1203    7.6617 H       1  UNL1        0.0000
     12 H          16.0229    2.4630    6.5612 H       1  UNL1        0.0000
     13 C          16.3614    2.9015    8.6149 C.3     1  UNL1        0.0000
     14 C          17.6889    2.6561    8.9809 C.2     1  UNL1        0.0000
     15 H          18.3682    1.9603    8.5312 H       1  UNL1        0.0000
     16 C          17.9333    3.4988   10.0458 C.2     1  UNL1        0.0000
     17 C          19.1957    3.6680   10.8132 C.3     1  UNL1        0.0000
     18 H          19.5159    4.7080   10.7958 H       1  UNL1        0.0000
     19 H          19.9730    3.0514   10.3698 H       1  UNL1        0.0000
     20 H          19.0631    3.3704   11.8520 H       1  UNL1        0.0000
     21 C          15.8011    8.9751    8.3382 C.3     1  UNL1        0.0000
     22 H          16.4823    8.8768    7.4912 H       1  UNL1        0.0000
     23 H          15.7098   10.0322    8.5746 H       1  UNL1        0.0000
     24 H          14.8183    8.5820    8.0666 H       1  UNL1        0.0000
     25 C          16.3245    8.2342    9.5184 C.3     1  UNL1        0.0000
     26 C          17.2092    8.6836   10.4995 C.2     1  UNL1        0.0000
     27 H          17.6633    9.6510   10.5742 H       1  UNL1        0.0000
     28 C          17.3704    7.6172   11.3662 C.2     1  UNL1        0.0000
     29 C          18.1816    7.5674   12.6110 C.3     1  UNL1        0.0000
     30 H          17.5472    7.3467   13.4675 H       1  UNL1        0.0000
     31 H          18.6616    8.5294   12.7683 H       1  UNL1        0.0000
     32 H          18.9480    6.7969   12.5494 H       1  UNL1        0.0000
     33 C          11.5685    4.9456   11.7824 C.3     1  UNL1        0.0000
     34 H          11.5204    5.3911   10.7859 H       1  UNL1        0.0000
     35 H          11.0913    5.6252   12.4882 H       1  UNL1        0.0000
     36 H          11.0202    4.0035   11.8052 H       1  UNL1        0.0000
     37 C          12.9921    4.7477   12.1716 C.3     1  UNL1        0.0000
     38 C          13.4969    4.3313   13.4049 C.2     1  UNL1        0.0000
     39 H          12.9401    4.0247   14.2673 H       1  UNL1        0.0000
     40 C          14.8722    4.4127   13.2832 C.2     1  UNL1        0.0000
     41 C          15.8922    4.0843   14.3140 C.3     1  UNL1        0.0000
     42 H          16.5716    3.3152   13.9522 H       1  UNL1        0.0000
     43 H          15.3950    3.7226   15.2101 H       1  UNL1        0.0000
     44 H          16.4800    4.9635   14.5706 H       1  UNL1        0.0000
@<TRIPOS>BOND
     1    12     9    1
     2    22    21    1
     3     9    10    1
     4     9    11    1
     5     9    13    1
     6    24    21    1
     7    21    23    1
     8    21    25    1
     9    15    14    1
    10    13    14    1
    11    13     1    1
    12    14    16    2
    13     1     2    1
    14    25     3    1
    15    25    26    1
    16     3     4    1
    17    16     2    1
    18    16    17    1
    19     2     7    1
    20    19    17    1
    21    26    27    1
    22    26    28    2
    23    34    33    1
    24    18    17    1
    25    17    20    1
    26     4    28    1
    27     4     7    1
    28     5     6    1
    29     5    37    1
    30    28    29    1
    31     7     6    1
    32     7     8    1
    33    33    36    1
    34    33    37    1
    35    33    35    1
    36     6    40    1
    37    37    38    1
    38    32    29    1
    39    29    31    1
    40    29    30    1
    41    40    38    2
    42    40    41    1
    43    38    39    1
    44    42    41    1
    45    41    44    1
    46    41    43    1
