@<TRIPOS>MOLECULE
48,62,77
 112 117 0 0 0
SMALL
GASTEIGER

@<TRIPOS>ATOM
      1 C           3.7069    0.2808    4.9141 C.3     1  UNL1        0.0000
      2 P           3.0854    0.4627    3.2647 P.3     1  UNL1        0.0000
      3 P           3.0456    1.3216    6.1725 P.3     1  UNL1        0.0000
      4 C           3.6389   -0.9956    2.3144 C.ar    1  UNL1        0.0000
      5 C           2.7536   -1.6727    1.4820 C.ar    1  UNL1        0.0000
      6 H           1.7167   -1.3701    1.4374 H       1  UNL1        0.0000
      7 C           3.1895   -2.7353    0.7105 C.ar    1  UNL1        0.0000
      8 H           2.4905   -3.2563    0.0718 H       1  UNL1        0.0000
      9 C           4.5163   -3.1299    0.7554 C.ar    1  UNL1        0.0000
     10 H           4.8539   -3.9628    0.1562 H       1  UNL1        0.0000
     11 C           5.4076   -2.4470    1.5655 C.ar    1  UNL1        0.0000
     12 H           6.4458   -2.7441    1.5969 H       1  UNL1        0.0000
     13 C           4.9746   -1.3807    2.3333 C.ar    1  UNL1        0.0000
     14 H           5.6680   -0.8519    2.9660 H       1  UNL1        0.0000
     15 C           1.2928    0.1703    3.3410 C.ar    1  UNL1        0.0000
     16 C           0.4005    1.0577    2.7610 C.ar    1  UNL1        0.0000
     17 H           0.7970    1.9254    2.2555 H       1  UNL1        0.0000
     18 C          -0.9599    0.8092    2.8093 C.ar    1  UNL1        0.0000
     19 H          -1.6551    1.5074    2.3655 H       1  UNL1        0.0000
     20 C          -1.4286   -0.3446    3.4143 C.ar    1  UNL1        0.0000
     21 H          -2.4897   -0.5441    3.4484 H       1  UNL1        0.0000
     22 C          -0.5365   -1.2559    3.9582 C.ar    1  UNL1        0.0000
     23 H          -0.9037   -2.1686    4.4043 H       1  UNL1        0.0000
     24 C           0.8206   -1.0004    3.9254 C.ar    1  UNL1        0.0000
     25 H           1.5304   -1.7068    4.3324 H       1  UNL1        0.0000
     26 C           4.0028    0.8750    7.6647 C.ar    1  UNL1        0.0000
     27 C           5.2925    1.3964    7.6932 C.ar    1  UNL1        0.0000
     28 H           5.6308    2.0045    6.8619 H       1  UNL1        0.0000
     29 C           6.1299    1.1465    8.7645 C.ar    1  UNL1        0.0000
     30 H           7.1340    1.5461    8.7696 H       1  UNL1        0.0000
     31 C           5.6806    0.3821    9.8289 C.ar    1  UNL1        0.0000
     32 H           6.3320    0.1810   10.6668 H       1  UNL1        0.0000
     33 C           4.3905   -0.1204    9.8176 C.ar    1  UNL1        0.0000
     34 H           4.0319   -0.7060   10.6520 H       1  UNL1        0.0000
     35 C           3.5528    0.1239    8.7431 C.ar    1  UNL1        0.0000
     36 H           2.5447   -0.2639    8.7574 H       1  UNL1        0.0000
     37 C           1.3469    0.7812    6.5179 C.ar    1  UNL1        0.0000
     38 C           1.0927   -0.5492    6.8367 C.ar    1  UNL1        0.0000
     39 H           1.9081   -1.2592    6.8270 H       1  UNL1        0.0000
     40 C          -0.1941   -0.9517    7.1413 C.ar    1  UNL1        0.0000
     41 H          -0.3895   -1.9805    7.4082 H       1  UNL1        0.0000
     42 C          -1.2356   -0.0381    7.0972 C.ar    1  UNL1        0.0000
     43 H          -2.2410   -0.3562    7.3312 H       1  UNL1        0.0000
     44 C          -0.9900    1.2789    6.7458 C.ar    1  UNL1        0.0000
     45 H          -1.8050    1.9866    6.6980 H       1  UNL1        0.0000
     46 C           0.3006    1.6902    6.4656 C.ar    1  UNL1        0.0000
     47 H           0.5187    2.7154    6.2052 H       1  UNL1        0.0000
     48 N           3.4214    1.8049    2.4153 N.3     1  UNL1        0.0000
     49 SI          3.7015    1.9049    0.7032 Si      1  UNL1        0.0000
     50 C           4.5425    3.6120    0.4502 C.3     1  UNL1        0.0000
     51 H           4.6604    4.1509    1.3926 H       1  UNL1        0.0000
     52 H           3.9692    4.2375   -0.2255 H       1  UNL1        0.0000
     53 H           5.5281    3.4895    0.0118 H       1  UNL1        0.0000
     54 C           2.0793    1.7811   -0.3179 C.3     1  UNL1        0.0000
     55 H           1.5614    0.8480   -0.1157 H       1  UNL1        0.0000
     56 H           2.3105    1.8050   -1.3779 H       1  UNL1        0.0000
     57 H           1.3857    2.5926   -0.1209 H       1  UNL1        0.0000
     58 C           4.8888    0.6460   -0.1225 C.3     1  UNL1        0.0000
     59 H           4.4010   -0.3013   -0.3248 H       1  UNL1        0.0000
     60 H           5.7600    0.4392    0.4909 H       1  UNL1        0.0000
     61 H           5.2384    1.0416   -1.0719 H       1  UNL1        0.0000
     62 N           3.1159    2.9343    6.0103 N.3     1  UNL1        0.0000
     63 SI          3.0518    4.0070    7.3876 Si      1  UNL1        0.0000
     64 C           4.8178    4.7220    7.6116 C.3     1  UNL1        0.0000
     65 H           5.3212    4.7580    6.6428 H       1  UNL1        0.0000
     66 H           5.4262    4.1282    8.2874 H       1  UNL1        0.0000
     67 H           4.7780    5.7312    8.0079 H       1  UNL1        0.0000
     68 C           2.4515    3.2231    9.0271 C.3     1  UNL1        0.0000
     69 H           1.7254    2.4371    8.8418 H       1  UNL1        0.0000
     70 H           1.9758    3.9699    9.6545 H       1  UNL1        0.0000
     71 H           3.2678    2.7889    9.5945 H       1  UNL1        0.0000
     72 C           1.8875    5.4948    7.0908 C.3     1  UNL1        0.0000
     73 H           2.1184    6.0116    6.1666 H       1  UNL1        0.0000
     74 H           2.0267    6.2055    7.8987 H       1  UNL1        0.0000
     75 H           0.8368    5.2224    7.0844 H       1  UNL1        0.0000
     76 C           5.2349    0.3479    4.9126 C.2     1  UNL1        0.0000
     77 N           5.7703    1.4181    4.2735 N.pl3   1  UNL1        0.5000
     78 N           5.9686   -0.5742    5.4208 N.2     1  UNL1        0.5000
     79 C           7.2066    1.3081    4.0223 C.3     1  UNL1        0.0000
     80 H           7.4338    0.2530    3.8030 H       1  UNL1        0.0000
     81 C           7.5782    2.1676    2.8131 C.3     1  UNL1        0.0000
     82 H           7.2880    3.2061    3.0223 H       1  UNL1        0.0000
     83 H           7.0038    1.8318    1.9439 H       1  UNL1        0.0000
     84 C           9.0735    2.0839    2.5154 C.3     1  UNL1        0.0000
     85 H           9.3230    1.0594    2.2281 H       1  UNL1        0.0000
     86 H           9.3219    2.7353    1.6731 H       1  UNL1        0.0000
     87 C           9.9009    2.4738    3.7372 C.3     1  UNL1        0.0000
     88 H           9.7166    3.5207    3.9862 H       1  UNL1        0.0000
     89 H          10.9650    2.3695    3.5107 H       1  UNL1        0.0000
     90 C           9.5353    1.6011    4.9335 C.3     1  UNL1        0.0000
     91 H          10.1183    1.9057    5.8061 H       1  UNL1        0.0000
     92 H           9.7848    0.5610    4.7123 H       1  UNL1        0.0000
     93 C           8.0455    1.6966    5.2460 C.3     1  UNL1        0.0000
     94 H           7.7855    2.7151    5.5560 H       1  UNL1        0.0000
     95 H           7.7879    1.0098    6.0533 H       1  UNL1        0.0000
     96 C           5.4303   -1.6991    6.1367 C.3     1  UNL1        0.0000
     97 H           4.5415   -1.4070    6.7223 H       1  UNL1        0.0000
     98 C           6.5134   -2.1846    7.1046 C.3     1  UNL1        0.0000
     99 H           7.3913   -2.4683    6.5214 H       1  UNL1        0.0000
    100 H           6.7988   -1.3595    7.7592 H       1  UNL1        0.0000
    101 C           6.0221   -3.3688    7.9274 C.3     1  UNL1        0.0000
    102 H           5.1699   -3.0532    8.5357 H       1  UNL1        0.0000
    103 H           6.8107   -3.7038    8.6058 H       1  UNL1        0.0000
    104 C           5.5988   -4.5145    7.0134 C.3     1  UNL1        0.0000
    105 H           6.4661   -4.8648    6.4490 H       1  UNL1        0.0000
    106 H           5.2246   -5.3518    7.6082 H       1  UNL1        0.0000
    107 C           4.5230   -4.0428    6.0406 C.3     1  UNL1        0.0000
    108 H           3.6339   -3.7472    6.6046 H       1  UNL1        0.0000
    109 H           4.2381   -4.8594    5.3719 H       1  UNL1        0.0000
    110 C           5.0159   -2.8559    5.2199 C.3     1  UNL1        0.0000
    111 H           5.8723   -3.1522    4.6109 H       1  UNL1        0.0000
    112 H           4.2272   -2.5141    4.5462 H       1  UNL1        0.0000
@<TRIPOS>BOND
     1    56    54    1
     2    61    58    1
     3    59    58    1
     4    54    57    1
     5    54    55    1
     6    54    49    1
     7    52    50    1
     8    58    60    1
     9    58    49    1
    10    53    50    1
    11     8     7    1
    12    10     9    1
    13    50    49    1
    14    50    51    1
    15    49    48    1
    16     7     9   ar
    17     7     5   ar
    18     9    11   ar
    19     6     5    1
    20     5     4   ar
    21    11    12    1
    22    11    13   ar
    23    86    84    1
    24    83    81    1
    25    85    84    1
    26    17    16    1
    27     4    13   ar
    28     4     2    1
    29    13    14    1
    30    19    18    1
    31    48     2    1
    32    84    81    1
    33    84    87    1
    34    16    18   ar
    35    16    15   ar
    36    18    20   ar
    37    81    82    1
    38    81    79    1
    39     2    15    1
    40     2     1    1
    41    15    24   ar
    42    20    21    1
    43    20    22   ar
    44    89    87    1
    45    87    88    1
    46    87    90    1
    47    80    79    1
    48    24    22   ar
    49    24    25    1
    50    22    23    1
    51    79    77    1
    52    79    93    1
    53    77    76    1
    54   112   110    1
    55   111   110    1
    56    92    90    1
    57    76     1    1
    58    76    78    2
    59     1     3    1
    60    90    93    1
    61    90    91    1
    62   110   107    1
    63   110    96    1
    64    93    94    1
    65    93    95    1
    66   109   107    1
    67    78    96    1
    68    62     3    1
    69    62    63    1
    70   107   108    1
    71   107   104    1
    72    96    97    1
    73    96    98    1
    74    73    72    1
    75     3    37    1
    76     3    26    1
    77    47    46    1
    78   105   104    1
    79    46    37   ar
    80    46    44   ar
    81    37    38   ar
    82    99    98    1
    83    65    64    1
    84    45    44    1
    85    44    42   ar
    86    39    38    1
    87    38    40   ar
    88    28    27    1
    89   104   106    1
    90   104   101    1
    91    75    72    1
    92    72    63    1
    93    72    74    1
    94    42    40   ar
    95    42    43    1
    96    98   100    1
    97    98   101    1
    98    40    41    1
    99    63    64    1
   100    63    68    1
   101    64    67    1
   102    64    66    1
   103    26    27   ar
   104    26    35   ar
   105    27    29   ar
   106   101   102    1
   107   101   103    1
   108    35    36    1
   109    35    33   ar
   110    29    30    1
   111    29    31   ar
   112    69    68    1
   113    68    71    1
   114    68    70    1
   115    33    31   ar
   116    33    34    1
   117    31    32    1
