@<TRIPOS>MOLECULE
1,2,3
 71 76 0 0 0
SMALL
GASTEIGER

@<TRIPOS>ATOM
      1 N           2.3274    4.9965    7.4893 N.pl3   1  UNL1       -0.2064
      2 N           6.0020    3.9640    7.0378 N.pl3   1  UNL1       -0.2064
      3 N           4.2242    5.3587    5.7630 N.3     1  UNL1       -0.1444
      4 P           2.6433    5.0687    5.9117 P.3     1  UNL1        0.1050
      5 P           5.5200    4.4153    5.5690 P.3     1  UNL1        0.1050
      6 C           1.0581    4.7475    8.0007 C.ar    1  UNL1        0.0540
      7 C           0.9040    4.7267    9.3911 C.ar    1  UNL1       -0.0387
      8 H           1.7777    4.9128   10.0078 H       1  UNL1        0.0637
      9 C          -0.3297    4.4807    9.9577 C.ar    1  UNL1       -0.0600
     10 H          -0.4281    4.4689   11.0335 H       1  UNL1        0.0618
     11 C          -1.4396    4.2531    9.1586 C.ar    1  UNL1       -0.0616
     12 H          -2.4038    4.0616    9.6043 H       1  UNL1        0.0618
     13 C          -1.2994    4.2777    7.7816 C.ar    1  UNL1       -0.0600
     14 H          -2.1561    4.1065    7.1454 H       1  UNL1        0.0618
     15 C          -0.0676    4.5222    7.2069 C.ar    1  UNL1       -0.0387
     16 H           0.0356    4.5456    6.1281 H       1  UNL1        0.0637
     17 C           1.8849    6.4883    5.0623 C.ar    1  UNL1        0.0096
     18 C           0.9596    7.2948    5.7111 C.ar    1  UNL1       -0.0515
     19 H           0.6396    7.0432    6.7116 H       1  UNL1        0.0625
     20 C           0.4596    8.4189    5.0776 C.ar    1  UNL1       -0.0611
     21 H          -0.2592    9.0452    5.5849 H       1  UNL1        0.0618
     22 C           0.8848    8.7438    3.8003 C.ar    1  UNL1       -0.0617
     23 H           0.4946    9.6223    3.3079 H       1  UNL1        0.0618
     24 C           1.8218    7.9504    3.1568 C.ar    1  UNL1       -0.0611
     25 H           2.1644    8.2124    2.1662 H       1  UNL1        0.0618
     26 C           2.3249    6.8289    3.7881 C.ar    1  UNL1       -0.0515
     27 H           3.0760    6.2161    3.3090 H       1  UNL1        0.0625
     28 C           2.1263    3.5477    5.0431 C.ar    1  UNL1        0.0096
     29 C           1.4747    3.5306    3.8183 C.ar    1  UNL1       -0.0515
     30 H           1.2464    4.4601    3.3154 H       1  UNL1        0.0625
     31 C           1.1109    2.3210    3.2536 C.ar    1  UNL1       -0.0611
     32 H           0.6041    2.3058    2.2997 H       1  UNL1        0.0618
     33 C           1.3876    1.1336    3.9105 C.ar    1  UNL1       -0.0617
     34 H           1.0965    0.1929    3.4674 H       1  UNL1        0.0618
     35 C           2.0297    1.1506    5.1383 C.ar    1  UNL1       -0.0611
     36 H           2.2382    0.2251    5.6541 H       1  UNL1        0.0618
     37 C           2.3991    2.3560    5.7038 C.ar    1  UNL1       -0.0515
     38 H           2.8990    2.3902    6.6685 H       1  UNL1        0.0625
     39 C           6.7125    5.5359    4.7756 C.ar    1  UNL1        0.0096
     40 C           6.9407    6.7066    5.4901 C.ar    1  UNL1       -0.0515
     41 H           6.3913    6.8678    6.4124 H       1  UNL1        0.0625
     42 C           7.8435    7.6398    5.0172 C.ar    1  UNL1       -0.0611
     43 H           8.0196    8.5512    5.5696 H       1  UNL1        0.0618
     44 C           8.5253    7.4017    3.8338 C.ar    1  UNL1       -0.0617
     45 H           9.2328    8.1282    3.4619 H       1  UNL1        0.0618
     46 C           8.3050    6.2309    3.1273 C.ar    1  UNL1       -0.0611
     47 H           8.8409    6.0453    2.2076 H       1  UNL1        0.0618
     48 C           7.4010    5.2932    3.5962 C.ar    1  UNL1       -0.0515
     49 H           7.2336    4.3772    3.0449 H       1  UNL1        0.0625
     50 C           5.2095    3.0412    4.4125 C.ar    1  UNL1        0.0096
     51 C           4.7634    3.3098    3.1246 C.ar    1  UNL1       -0.0515
     52 H           4.6317    4.3381    2.8154 H       1  UNL1        0.0625
     53 C           4.4938    2.2684    2.2572 C.ar    1  UNL1       -0.0611
     54 H           4.1468    2.4757    1.2554 H       1  UNL1        0.0618
     55 C           4.6707    0.9583    2.6737 C.ar    1  UNL1       -0.0617
     56 H           4.4639    0.1460    1.9928 H       1  UNL1        0.0618
     57 C           5.1094    0.6885    3.9593 C.ar    1  UNL1       -0.0611
     58 H           5.2451   -0.3332    4.2817 H       1  UNL1        0.0618
     59 C           5.3737    1.7283    4.8326 C.ar    1  UNL1       -0.0515
     60 H           5.7145    1.5330    5.8406 H       1  UNL1        0.0625
     61 C           7.2439    3.3872    7.2818 C.ar    1  UNL1        0.0540
     62 C           8.1205    2.9831    6.2748 C.ar    1  UNL1       -0.0387
     63 H           7.8324    3.1223    5.2401 H       1  UNL1        0.0637
     64 C           9.3384    2.4116    6.5877 C.ar    1  UNL1       -0.0600
     65 H          10.0021    2.1077    5.7907 H       1  UNL1        0.0618
     66 C           9.7086    2.2269    7.9088 C.ar    1  UNL1       -0.0616
     67 H          10.6602    1.7777    8.1496 H       1  UNL1        0.0618
     68 C           8.8467    2.6278    8.9182 C.ar    1  UNL1       -0.0600
     69 H           9.1261    2.4924    9.9528 H       1  UNL1        0.0618
     70 C           7.6310    3.2039    8.6127 C.ar    1  UNL1       -0.0387
     71 H           6.9500    3.5305    9.3939 H       1  UNL1        0.0637
@<TRIPOS>BOND
     1    54    53    1
     2    56    55    1
     3    25    24    1
     4    47    46    1
     5    53    55   ar
     6    53    51   ar
     7    32    31    1
     8    55    57   ar
     9    52    51    1
    10    49    48    1
    11    51    50   ar
    12    46    48   ar
    13    46    44   ar
    14    24    26   ar
    15    24    22   ar
    16    31    29   ar
    17    31    33   ar
    18    23    22    1
    19    27    26    1
    20    30    29    1
    21    45    44    1
    22    34    33    1
    23    48    39   ar
    24    26    17   ar
    25    22    20   ar
    26    29    28   ar
    27    44    42   ar
    28    33    35   ar
    29    57    58    1
    30    57    59   ar
    31    50    59   ar
    32    50     5    1
    33    39    40   ar
    34    39     5    1
    35    59    60    1
    36    42    40   ar
    37    42    43    1
    38    28    37   ar
    39    28     4    1
    40    17    18   ar
    41    17     4    1
    42    20    21    1
    43    20    18   ar
    44    35    36    1
    45    35    37   ar
    46    63    62    1
    47    40    41    1
    48     5     3    1
    49     5     2    1
    50    37    38    1
    51    18    19    1
    52     3     4    1
    53    65    64    1
    54     4     1    1
    55    16    15    1
    56    62    64   ar
    57    62    61   ar
    58    64    66   ar
    59     2    61    1
    60    14    13    1
    61    15    13   ar
    62    15     6   ar
    63    61    70   ar
    64     1     6    1
    65    13    11   ar
    66    66    67    1
    67    66    68   ar
    68     6     7   ar
    69    70    68   ar
    70    70    71    1
    71    68    69    1
    72    11    12    1
    73    11     9   ar
    74     7     9   ar
    75     7     8    1
    76     9    10    1
