@<TRIPOS>MOLECULE
3,4,5
 83 88 0 0 0
SMALL
GASTEIGER

@<TRIPOS>ATOM
      1 P          10.0763    6.2403    3.6611 P.3     1  UNL1        0.1050
      2 P           9.7933    3.4168    4.3768 P.3     1  UNL1        0.1050
      3 N          11.5253    6.5249    3.0393 N.pl3   1  UNL1       -0.2059
      4 N           9.7365    4.6818    3.3695 N.3     1  UNL1       -0.1444
      5 N          11.3264    2.9632    4.5141 N.pl3   1  UNL1       -0.2059
      6 C          11.9819    7.8120    2.6668 C.ar    1  UNL1        0.0598
      7 C          11.8295    8.2243    1.3338 C.ar    1  UNL1       -0.0273
      8 C          12.2874    9.4733    0.9450 C.ar    1  UNL1       -0.0570
      9 H          12.1555    9.7848   -0.0815 H       1  UNL1        0.0621
     10 C          12.9060   10.3180    1.8471 C.ar    1  UNL1       -0.0611
     11 H          13.2531   11.2917    1.5350 H       1  UNL1        0.0618
     12 C          13.0904    9.8956    3.1491 C.ar    1  UNL1       -0.0570
     13 H          13.5918   10.5398    3.8579 H       1  UNL1        0.0621
     14 C          12.6438    8.6518    3.5729 C.ar    1  UNL1       -0.0273
     15 C          11.1744    7.3237    0.3342 C.3     1  UNL1       -0.0379
     16 H          11.5305    6.2971    0.4571 H       1  UNL1        0.0278
     17 H          11.3854    7.6603   -0.6782 H       1  UNL1        0.0278
     18 H          10.0931    7.3231    0.4767 H       1  UNL1        0.0278
     19 C          12.8802    8.2365    4.9932 C.3     1  UNL1       -0.0379
     20 H          13.7277    8.7782    5.4081 H       1  UNL1        0.0278
     21 H          13.0811    7.1668    5.0439 H       1  UNL1        0.0278
     22 H          12.0061    8.4523    5.6102 H       1  UNL1        0.0278
     23 C           8.7772    7.2430    2.8843 C.ar    1  UNL1        0.0096
     24 C           8.9348    8.6257    2.8567 C.ar    1  UNL1       -0.0515
     25 H           9.7858    9.0749    3.3505 H       1  UNL1        0.0625
     26 C           8.0107    9.4117    2.1937 C.ar    1  UNL1       -0.0611
     27 H           8.1368   10.4840    2.1678 H       1  UNL1        0.0618
     28 C           6.9271    8.8224    1.5607 C.ar    1  UNL1       -0.0617
     29 H           6.2081    9.4378    1.0403 H       1  UNL1        0.0618
     30 C           6.7640    7.4469    1.5947 C.ar    1  UNL1       -0.0611
     31 H           5.9167    6.9901    1.1046 H       1  UNL1        0.0618
     32 C           7.6887    6.6564    2.2535 C.ar    1  UNL1       -0.0515
     33 H           7.5748    5.5822    2.2891 H       1  UNL1        0.0625
     34 C           9.9639    6.6284    5.4457 C.ar    1  UNL1        0.0096
     35 C           9.0285    7.4868    6.0046 C.ar    1  UNL1       -0.0515
     36 H           8.3015    7.9792    5.3739 H       1  UNL1        0.0625
     37 C           9.0242    7.6996    7.3723 C.ar    1  UNL1       -0.0611
     38 H           8.2948    8.3665    7.8085 H       1  UNL1        0.0618
     39 C           9.9495    7.0613    8.1805 C.ar    1  UNL1       -0.0617
     40 H           9.9415    7.2311    9.2469 H       1  UNL1        0.0618
     41 C          10.8888    6.2078    7.6228 C.ar    1  UNL1       -0.0611
     42 H          11.6161    5.7201    8.2554 H       1  UNL1        0.0618
     43 C          10.8943    5.9915    6.2579 C.ar    1  UNL1       -0.0515
     44 H          11.6249    5.3332    5.7914 H       1  UNL1        0.0625
     45 C           8.8801    3.7248    5.9372 C.ar    1  UNL1        0.0096
     46 C           7.7995    4.5968    5.9099 C.ar    1  UNL1       -0.0515
     47 H           7.5599    5.1104    4.9883 H       1  UNL1        0.0625
     48 C           7.0461    4.8083    7.0483 C.ar    1  UNL1       -0.0611
     49 H           6.2149    5.4977    7.0243 H       1  UNL1        0.0618
     50 C           7.3559    4.1330    8.2178 C.ar    1  UNL1       -0.0617
     51 H           6.7711    4.3020    9.1098 H       1  UNL1        0.0618
     52 C           8.4040    3.2288    8.2380 C.ar    1  UNL1       -0.0611
     53 H           8.6310    2.6820    9.1417 H       1  UNL1        0.0618
     54 C           9.1603    3.0169    7.0985 C.ar    1  UNL1       -0.0515
     55 H           9.9630    2.2942    7.1052 H       1  UNL1        0.0625
     56 C           8.6539    2.1848    3.6584 C.ar    1  UNL1        0.0096
     57 C           8.2650    1.0911    4.4235 C.ar    1  UNL1       -0.0515
     58 H           8.6360    0.9831    5.4337 H       1  UNL1        0.0625
     59 C           7.4149    0.1409    3.8886 C.ar    1  UNL1       -0.0611
     60 H           7.1178   -0.7112    4.4825 H       1  UNL1        0.0618
     61 C           6.9447    0.2822    2.5919 C.ar    1  UNL1       -0.0617
     62 H           6.2779   -0.4596    2.1775 H       1  UNL1        0.0618
     63 C           7.3322    1.3711    1.8286 C.ar    1  UNL1       -0.0611
     64 H           6.9694    1.4792    0.8169 H       1  UNL1        0.0618
     65 C           8.1898    2.3191    2.3583 C.ar    1  UNL1       -0.0515
     66 H           8.5143    3.1652    1.7729 H       1  UNL1        0.0625
     67 C          11.7425    1.7230    5.0562 C.ar    1  UNL1        0.0598
     68 C          12.3763    1.7023    6.3098 C.ar    1  UNL1       -0.0273
     69 C          12.7725    0.4923    6.8559 C.ar    1  UNL1       -0.0570
     70 H          13.2471    0.4827    7.8273 H       1  UNL1        0.0621
     71 C          12.5764   -0.6954    6.1749 C.ar    1  UNL1       -0.0611
     72 H          12.8753   -1.6338    6.6173 H       1  UNL1        0.0618
     73 C          12.0338   -0.6620    4.9063 C.ar    1  UNL1       -0.0570
     74 H          11.9273   -1.5761    4.3396 H       1  UNL1        0.0621
     75 C          11.6305    0.5332    4.3243 C.ar    1  UNL1       -0.0273
     76 C          12.6714    2.9820    7.0335 C.3     1  UNL1       -0.0379
     77 H          11.7572    3.4869    7.3421 H       1  UNL1        0.0278
     78 H          13.2227    3.6471    6.3661 H       1  UNL1        0.0278
     79 H          13.2745    2.7864    7.9174 H       1  UNL1        0.0278
     80 C          11.1631    0.5102    2.8982 C.3     1  UNL1       -0.0379
     81 H          11.8904   -0.0288    2.2907 H       1  UNL1        0.0278
     82 H          11.0632    1.5231    2.4963 H       1  UNL1        0.0278
     83 H          10.2071   -0.0041    2.8033 H       1  UNL1        0.0278
@<TRIPOS>BOND
     1    17    15    1
     2     9     8    1
     3    15    16    1
     4    15    18    1
     5    15     7    1
     6    64    63    1
     7     8     7   ar
     8     8    10   ar
     9    29    28    1
    10    31    30    1
    11     7     6   ar
    12    11    10    1
    13    28    30   ar
    14    28    26   ar
    15    30    32   ar
    16    66    65    1
    17    63    65   ar
    18    63    61   ar
    19    10    12   ar
    20    27    26    1
    21    62    61    1
    22    26    24   ar
    23    32    33    1
    24    32    23   ar
    25    81    80    1
    26    65    56   ar
    27    82    80    1
    28    61    59   ar
    29     6     3    1
    30     6    14   ar
    31    83    80    1
    32    24    23   ar
    33    24    25    1
    34    23     1    1
    35    80    75    1
    36     3     1    1
    37    12    14   ar
    38    12    13    1
    39     4     1    1
    40     4     2    1
    41    14    19    1
    42    56     2    1
    43    56    57   ar
    44     1    34    1
    45    59    57   ar
    46    59    60    1
    47    75    73   ar
    48    75    67   ar
    49    74    73    1
    50     2     5    1
    51     2    45    1
    52    57    58    1
    53     5    67    1
    54    73    71   ar
    55    47    46    1
    56    19    21    1
    57    19    20    1
    58    19    22    1
    59    67    68   ar
    60    36    35    1
    61    34    35   ar
    62    34    43   ar
    63    44    43    1
    64    46    45   ar
    65    46    48   ar
    66    45    54   ar
    67    35    37   ar
    68    71    72    1
    69    71    69   ar
    70    43    41   ar
    71    68    69   ar
    72    68    76    1
    73    78    76    1
    74    69    70    1
    75    49    48    1
    76    76    77    1
    77    76    79    1
    78    48    50   ar
    79    54    55    1
    80    54    52   ar
    81    37    38    1
    82    37    39   ar
    83    41    39   ar
    84    41    42    1
    85    39    40    1
    86    50    52   ar
    87    50    51    1
    88    52    53    1
