@<TRIPOS>MOLECULE
14,26,40
 49 49 0 0 0
SMALL
GASTEIGER

@<TRIPOS>ATOM
      1 SI          1.0147    5.5076    3.5486 Si      1  UNL1        0.0000
      2 C          -0.0074    7.0964    3.9316 C.3     1  UNL1        0.0000
      3 H          -0.7220    6.9327    4.7341 H       1  UNL1        0.0000
      4 H          -0.5678    7.4169    3.0570 H       1  UNL1        0.0000
      5 H           0.6319    7.9233    4.2238 H       1  UNL1        0.0000
      6 C           2.4250    6.1025    2.3793 C.3     1  UNL1        0.0000
      7 H           3.1212    5.3013    2.1482 H       1  UNL1        0.0000
      8 H           2.9933    6.9092    2.8304 H       1  UNL1        0.0000
      9 H           2.0279    6.4706    1.4373 H       1  UNL1        0.0000
     10 C           1.7345    4.8007    5.1654 C.3     1  UNL1        0.0000
     11 H           2.8178    4.7552    5.1413 H       1  UNL1        0.0000
     12 H           1.3419    3.7889    5.2873 H       1  UNL1        0.0000
     13 H           1.4544    5.3954    6.0290 H       1  UNL1        0.0000
     14 N           0.1317    4.2268    2.8624 N.3     1  UNL1        0.0000
     15 C          -0.8565    4.4445    1.8664 C.3     1  UNL1        0.0000
     16 H          -0.6782    3.7860    0.9896 H       1  UNL1        0.0000
     17 H          -0.8264    5.4802    1.4872 H       1  UNL1        0.0000
     18 C          -2.3522    4.1875    2.3164 C.3     1  UNL1        0.0000
     19 C          -3.2524    4.9990    1.3771 C.3     1  UNL1        0.0000
     20 H          -4.3061    4.8402    1.6019 H       1  UNL1        0.0000
     21 H          -3.0785    4.6826    0.3494 H       1  UNL1        0.0000
     22 H          -3.0338    6.0638    1.4422 H       1  UNL1        0.0000
     23 C          -2.7364    2.6750    2.1231 C.3     1  UNL1        0.0000
     24 H          -3.8327    2.6482    2.0118 H       1  UNL1        0.0000
     25 H          -2.3163    2.3761    1.1380 H       1  UNL1        0.0000
     26 N          -2.2999    1.7789    3.1387 N.3     1  UNL1        0.0000
     27 SI         -3.3671    0.8862    4.1205 Si      1  UNL1        0.0000
     28 C          -3.4063    1.4597    5.9540 C.3     1  UNL1        0.0000
     29 H          -2.3855    1.6179    6.2930 H       1  UNL1        0.0000
     30 H          -3.8670    0.7175    6.5983 H       1  UNL1        0.0000
     31 H          -3.9540    2.3906    6.0839 H       1  UNL1        0.0000
     32 C          -2.8443   -0.9609    4.0977 C.3     1  UNL1        0.0000
     33 H          -1.7899   -1.0531    4.3371 H       1  UNL1        0.0000
     34 H          -3.0114   -1.4275    3.1310 H       1  UNL1        0.0000
     35 H          -3.4021   -1.5300    4.8339 H       1  UNL1        0.0000
     36 C          -5.1826    0.9536    3.4932 C.3     1  UNL1        0.0000
     37 H          -5.2581    0.6409    2.4561 H       1  UNL1        0.0000
     38 H          -5.5950    1.9558    3.5693 H       1  UNL1        0.0000
     39 H          -5.8182    0.2972    4.0771 H       1  UNL1        0.0000
     40 N          -1.6905    3.9229    4.5992 N.pl3   1  UNL1        0.0000
     41 C          -1.6810    4.2484    5.8904 C.3     1  UNL1        0.0000
     42 H          -0.9779    3.6924    6.5034 H       1  UNL1        0.0000
     43 C          -2.5000    5.2249    6.4194 C.2     1  UNL1        0.0000
     44 H          -2.4661    5.4662    7.4703 H       1  UNL1        0.0000
     45 C          -3.3776    5.8827    5.5624 C.2     1  UNL1        0.0000
     46 H          -4.0486    6.6418    5.9369 H       1  UNL1        0.0000
     47 C          -3.3695    5.5597    4.2190 C.2     1  UNL1        0.0000
     48 H          -4.0342    6.0739    3.5441 H       1  UNL1        0.0000
     49 C          -2.5002    4.5730    3.7519 C.2     1  UNL1        0.0000
@<TRIPOS>BOND
     1    21    19    1
     2    16    15    1
     3    25    23    1
     4    19    22    1
     5    19    20    1
     6    19    18    1
     7     9     6    1
     8    17    15    1
     9    15    18    1
    10    15    14    1
    11    24    23    1
    12    23    18    1
    13    23    26    1
    14     7     6    1
    15    18    49    1
    16     6     8    1
    17     6     1    1
    18    37    36    1
    19    14     1    1
    20     4     2    1
    21    34    32    1
    22    26    27    1
    23    36    38    1
    24    36    39    1
    25    36    27    1
    26    48    47    1
    27     1     2    1
    28     1    10    1
    29    49    47    2
    30    49    40    1
    31     2     5    1
    32     2     3    1
    33    32    27    1
    34    32    33    1
    35    32    35    1
    36    27    28    1
    37    47    45    1
    38    40    41    1
    39    11    10    1
    40    10    12    1
    41    10    13    1
    42    45    46    1
    43    45    43    2
    44    41    43    1
    45    41    42    1
    46    28    31    1
    47    28    29    1
    48    28    30    1
    49    43    44    1
