@<TRIPOS>MOLECULE
3,4,5
 49 49 0 0 0
SMALL
GASTEIGER

@<TRIPOS>ATOM
      1 SI          4.3770   12.3017   17.1760 Si      1  UNL1        0.0000
      2 SI          1.6579    6.9726   19.2997 Si      1  UNL1        0.0000
      3 N           4.0210   10.8826   18.0823 N.3     1  UNL1        0.0000
      4 N           2.4306    8.5000   19.3326 N.3     1  UNL1        0.0000
      5 N           4.2723    8.1613   17.5752 N.pl3   1  UNL1        0.0000
      6 C           4.9050   10.5718   19.1707 C.3     1  UNL1        0.0000
      7 H           4.6939   11.2304   20.0343 H       1  UNL1        0.0000
      8 H           5.9537   10.7652   18.8823 H       1  UNL1        0.0000
      9 C           4.8631    9.1136   19.7021 C.3     1  UNL1        0.0000
     10 C           5.8789    9.0308   20.8486 C.3     1  UNL1        0.0000
     11 H           5.6005    9.7375   21.6279 H       1  UNL1        0.0000
     12 H           6.8798    9.2868   20.5066 H       1  UNL1        0.0000
     13 H           5.8956    8.0372   21.2910 H       1  UNL1        0.0000
     14 C           3.4535    8.7569   20.2974 C.3     1  UNL1        0.0000
     15 H           3.6080    7.8856   20.9538 H       1  UNL1        0.0000
     16 H           3.1737    9.5984   20.9569 H       1  UNL1        0.0000
     17 C           5.8904   12.0461   16.0046 C.3     1  UNL1        0.0000
     18 H           6.6656   11.4545   16.4857 H       1  UNL1        0.0000
     19 H           6.3351   12.9957   15.7246 H       1  UNL1        0.0000
     20 H           5.6118   11.5343   15.0886 H       1  UNL1        0.0000
     21 C           4.9000   13.7517   18.3341 C.3     1  UNL1        0.0000
     22 H           5.8582   13.5488   18.8030 H       1  UNL1        0.0000
     23 H           4.1785   13.9224   19.1281 H       1  UNL1        0.0000
     24 H           5.0020   14.6796   17.7807 H       1  UNL1        0.0000
     25 C           2.8436   12.8413   16.1767 C.3     1  UNL1        0.0000
     26 H           2.4352   13.7756   16.5494 H       1  UNL1        0.0000
     27 H           2.0673   12.0811   16.2357 H       1  UNL1        0.0000
     28 H           3.0958   12.9977   15.1331 H       1  UNL1        0.0000
     29 C           2.8786    5.4755   19.3479 C.3     1  UNL1        0.0000
     30 H           3.6468    5.6204   20.1032 H       1  UNL1        0.0000
     31 H           3.3834    5.3240   18.3976 H       1  UNL1        0.0000
     32 H           2.3603    4.5539   19.5919 H       1  UNL1        0.0000
     33 C           0.6582    6.8860   17.6826 C.3     1  UNL1        0.0000
     34 H           1.2628    7.1808   16.8245 H       1  UNL1        0.0000
     35 H          -0.1966    7.5528   17.7341 H       1  UNL1        0.0000
     36 H           0.2830    5.8835   17.5037 H       1  UNL1        0.0000
     37 C           0.4998    6.6920   20.8101 C.3     1  UNL1        0.0000
     38 H           1.0056    6.9168   21.7453 H       1  UNL1        0.0000
     39 H           0.1696    5.6593   20.8594 H       1  UNL1        0.0000
     40 H          -0.3874    7.3150   20.7591 H       1  UNL1        0.0000
     41 C           4.3754    7.2321   16.6259 C.3     1  UNL1        0.0000
     42 H           3.6158    7.2538   15.8538 H       1  UNL1        0.0000
     43 C           5.3701    6.2737   16.6009 C.2     1  UNL1        0.0000
     44 H           5.4120    5.5454   15.8064 H       1  UNL1        0.0000
     45 C           6.3112    6.2795   17.6217 C.2     1  UNL1        0.0000
     46 H           7.1187    5.5627   17.6351 H       1  UNL1        0.0000
     47 C           6.1818    7.2101   18.6345 C.2     1  UNL1        0.0000
     48 H           6.8902    7.2112   19.4459 H       1  UNL1        0.0000
     49 C           5.1428    8.1415   18.5941 C.2     1  UNL1        0.0000
@<TRIPOS>BOND
     1    20    17    1
     2    28    25    1
     3    19    17    1
     4    44    43    1
     5    42    41    1
     6    17    18    1
     7    17     1    1
     8    25    27    1
     9    25    26    1
    10    25     1    1
    11    43    41    1
    12    43    45    2
    13    41     5    1
    14    34    33    1
    15     1     3    1
    16     1    21    1
    17    36    33    1
    18     5    49    1
    19    45    46    1
    20    45    47    1
    21    33    35    1
    22    33     2    1
    23    24    21    1
    24     3     6    1
    25    21    22    1
    26    21    23    1
    27    31    29    1
    28    49    47    2
    29    49     9    1
    30    47    48    1
    31     8     6    1
    32     6     9    1
    33     6     7    1
    34     2     4    1
    35     2    29    1
    36     2    37    1
    37     4    14    1
    38    29    32    1
    39    29    30    1
    40     9    14    1
    41     9    10    1
    42    14    15    1
    43    14    16    1
    44    12    10    1
    45    40    37    1
    46    37    39    1
    47    37    38    1
    48    10    13    1
    49    10    11    1
