@<TRIPOS>MOLECULE
1,3,5
 44 46 0 0 0
SMALL
GASTEIGER

@<TRIPOS>ATOM
      1 N           8.3544    5.0923    1.7677 N.ar    1  UNL1        0.0000
      2 N           7.0848    5.4270    2.0746 N.ar    1  UNL1        0.0000
      3 N           6.7214    2.6469    1.2471 N.ar    1  UNL1        0.0000
      4 N           5.7567    3.3317    1.8811 N.ar    1  UNL1        0.0000
      5 N           7.8957    3.0882    3.9397 N.ar    1  UNL1        0.0000
      6 N           6.8183    3.8881    4.0538 N.ar    1  UNL1        0.0000
      7 C          10.3078    6.1907    0.6503 C.3     1  UNL1        0.0000
      8 C           8.8990    6.1243    1.1218 C.ar    1  UNL1        0.0000
      9 C           7.9504    7.1414    1.0011 C.ar    1  UNL1        0.0000
     10 C           6.8099    6.6627    1.6178 C.ar    1  UNL1        0.0000
     11 C           5.4997    7.3485    1.7669 C.3     1  UNL1        0.0000
     12 C           6.8962    0.8237   -0.4280 C.3     1  UNL1        0.0000
     13 C           6.1429    1.7515    0.4570 C.ar    1  UNL1        0.0000
     14 C           4.7529    1.8606    0.5883 C.ar    1  UNL1        0.0000
     15 C           4.5453    2.8744    1.5036 C.ar    1  UNL1        0.0000
     16 C           3.2573    3.4018    2.0265 C.3     1  UNL1        0.0000
     17 C           9.1995    1.5470    5.4037 C.3     1  UNL1        0.0000
     18 C           8.1286    2.5434    5.1369 C.ar    1  UNL1        0.0000
     19 C           7.1839    3.0212    6.0447 C.ar    1  UNL1        0.0000
     20 C           6.3661    3.8719    5.3205 C.ar    1  UNL1        0.0000
     21 C           5.2046    4.6584    5.8112 C.3     1  UNL1        0.0000
     22 B           6.1227    4.4919    2.8179 B       1  UNL1        0.0000
     23 H           5.1564    5.0788    3.1502 H       1  UNL1        0.0000
     24 H          10.4085    7.0010   -0.0688 H       1  UNL1        0.0000
     25 H          10.9747    6.3863    1.4898 H       1  UNL1        0.0000
     26 H          10.6078    5.2570    0.1771 H       1  UNL1        0.0000
     27 H           8.0795    8.0940    0.5282 H       1  UNL1        0.0000
     28 H           5.5514    8.3265    1.2956 H       1  UNL1        0.0000
     29 H           5.2466    7.4780    2.8177 H       1  UNL1        0.0000
     30 H           4.7067    6.7718    1.2942 H       1  UNL1        0.0000
     31 H           6.6170    0.9956   -1.4675 H       1  UNL1        0.0000
     32 H           7.9688    0.9788   -0.3207 H       1  UNL1        0.0000
     33 H           6.6590   -0.2100   -0.1791 H       1  UNL1        0.0000
     34 H           4.0081    1.2782    0.0849 H       1  UNL1        0.0000
     35 H           2.4331    2.8703    1.5587 H       1  UNL1        0.0000
     36 H           3.1566    4.4647    1.8137 H       1  UNL1        0.0000
     37 H           3.1958    3.2658    3.1052 H       1  UNL1        0.0000
     38 H           9.3359    1.4366    6.4767 H       1  UNL1        0.0000
     39 H          10.1355    1.8584    4.9457 H       1  UNL1        0.0000
     40 H           8.9204    0.5787    4.9859 H       1  UNL1        0.0000
     41 H           7.1047    2.7816    7.0857 H       1  UNL1        0.0000
     42 H           5.1084    4.5262    6.8854 H       1  UNL1        0.0000
     43 H           5.3401    5.7164    5.5957 H       1  UNL1        0.0000
     44 H           4.2828    4.3317    5.3333 H       1  UNL1        0.0000
@<TRIPOS>BOND
     1    31    12    1
     2    12    32    1
     3    12    33    1
     4    12    13    1
     5    24     7    1
     6    34    14    1
     7    26     7    1
     8    13    14   ar
     9    13     3   ar
    10    27     9    1
    11    14    15   ar
    12     7     8    1
    13     7    25    1
    14     9     8   ar
    15     9    10   ar
    16     8     1   ar
    17     3     4   ar
    18    30    11    1
    19    28    11    1
    20    15     4   ar
    21    15    16    1
    22    35    16    1
    23    10    11    1
    24    10     2   ar
    25    11    29    1
    26     1     2   ar
    27    36    16    1
    28     4    22    1
    29    16    37    1
    30     2    22    1
    31    22    23    1
    32    22     6    1
    33     5     6   ar
    34     5    18   ar
    35     6    20   ar
    36    39    17    1
    37    40    17    1
    38    18    17    1
    39    18    19   ar
    40    20    21    1
    41    20    19   ar
    42    44    21    1
    43    17    38    1
    44    43    21    1
    45    21    42    1
    46    19    41    1
