@<TRIPOS>MOLECULE
1,2,3
 70 70 0 0 0
SMALL
GASTEIGER

@<TRIPOS>ATOM
      1 N           3.3469   12.6273    7.4432 N.pl3   1  UNL1       -0.2371
      2 N           1.0221   11.5412    8.8961 N.pl3   1  UNL1       -0.2542
      3 N          -1.1303   13.0558    7.6653 N.3     1  UNL1       -0.2960
      4 C           5.2423   13.0719    8.9648 C.3     1  UNL1       -0.0359
      5 H           5.8552   13.0663    8.0675 H       1  UNL1        0.0255
      6 H           5.6988   12.4258    9.7114 H       1  UNL1        0.0255
      7 H           5.2265   14.0839    9.3686 H       1  UNL1        0.0255
      8 C           3.8216   12.6289    8.6768 C.3     1  UNL1        0.0968
      9 C           3.0950   12.2628    9.8138 C.2     1  UNL1       -0.0387
     10 H           3.6415   12.3596   10.7410 H       1  UNL1        0.0610
     11 C           1.7960   11.7622    9.9365 C.2     1  UNL1        0.0204
     12 C           1.3417   11.4634   11.3512 C.3     1  UNL1       -0.0253
     13 H           0.4423   12.0237   11.6036 H       1  UNL1        0.0290
     14 H           2.1183   11.7272   12.0625 H       1  UNL1        0.0290
     15 H           1.1261   10.4011   11.4617 H       1  UNL1        0.0290
     16 C          -0.3576   11.1346    9.0858 C.3     1  UNL1        0.0438
     17 H          -0.5420   10.6669   10.0595 H       1  UNL1        0.0494
     18 H          -0.5980   10.4017    8.3079 H       1  UNL1        0.0494
     19 C          -1.2843   12.3593    8.9571 C.3     1  UNL1        0.0168
     20 H          -2.3154   12.0273    9.1074 H       1  UNL1        0.0443
     21 H          -1.0465   13.0434    9.7776 H       1  UNL1        0.0443
     22 C          -0.9068   14.5097    7.8845 C.3     1  UNL1        0.0051
     23 H          -1.5970   14.8771    8.6659 H       1  UNL1        0.0457
     24 C          -1.0982   15.3699    6.6334 C.3     1  UNL1       -0.0497
     25 H          -0.4948   14.9862    5.8127 H       1  UNL1        0.0245
     26 H          -0.7688   16.3830    6.8537 H       1  UNL1        0.0245
     27 H          -2.1340   15.4269    6.3144 H       1  UNL1        0.0245
     28 C           0.5356   14.7152    8.3551 C.3     1  UNL1       -0.0497
     29 H           0.7445   14.2059    9.2951 H       1  UNL1        0.0245
     30 H           0.7354   15.7762    8.4949 H       1  UNL1        0.0245
     31 H           1.2071   14.3220    7.5666 H       1  UNL1        0.0245
     32 C          -2.2804   12.7833    6.7695 C.3     1  UNL1        0.0051
     33 H          -2.0453   13.2771    5.8222 H       1  UNL1        0.0457
     34 C          -2.4074   11.2940    6.4615 C.3     1  UNL1       -0.0497
     35 H          -1.4350   10.8998    6.1428 H       1  UNL1        0.0245
     36 H          -3.1156   11.1591    5.6470 H       1  UNL1        0.0245
     37 H          -2.7665   10.7276    7.3178 H       1  UNL1        0.0245
     38 C          -3.6337   13.3100    7.2744 C.3     1  UNL1       -0.0497
     39 H          -4.0063   12.7258    8.1132 H       1  UNL1        0.0245
     40 H          -4.3605   13.2295    6.4700 H       1  UNL1        0.0245
     41 H          -3.5835   14.3506    7.5813 H       1  UNL1        0.0245
     42 C           4.2355   12.9501    6.3773 C.ar    1  UNL1        0.0557
     43 C           4.8369   11.9017    5.6537 C.ar    1  UNL1       -0.0219
     44 C           5.7143   12.2158    4.6261 C.ar    1  UNL1       -0.0565
     45 H           6.1993   11.4269    4.0747 H       1  UNL1        0.0621
     46 C           5.9751   13.5300    4.2850 C.ar    1  UNL1       -0.0611
     47 H           6.6535   13.7547    3.4749 H       1  UNL1        0.0618
     48 C           5.3656   14.5528    4.9828 C.ar    1  UNL1       -0.0565
     49 H           5.5677   15.5762    4.7061 H       1  UNL1        0.0621
     50 C           4.5125   14.2864    6.0444 C.ar    1  UNL1       -0.0219
     51 C           3.9003   15.4396    6.8089 C.3     1  UNL1       -0.0197
     52 H           3.3634   15.0361    7.6745 H       1  UNL1        0.0344
     53 C           2.9045   16.1929    5.9226 C.3     1  UNL1       -0.0586
     54 H           2.3904   16.9616    6.4965 H       1  UNL1        0.0235
     55 H           2.1689   15.5082    5.5046 H       1  UNL1        0.0235
     56 H           3.4209   16.6736    5.0953 H       1  UNL1        0.0235
     57 C           4.9723   16.4025    7.3290 C.3     1  UNL1       -0.0586
     58 H           5.4489   16.9355    6.5104 H       1  UNL1        0.0235
     59 H           5.7435   15.8684    7.8792 H       1  UNL1        0.0235
     60 H           4.5207   17.1385    7.9916 H       1  UNL1        0.0235
     61 C           4.5284   10.4615    6.0060 C.3     1  UNL1       -0.0197
     62 H           3.4527   10.4114    6.2871 H       1  UNL1        0.0344
     63 C           4.7512    9.4956    4.8427 C.3     1  UNL1       -0.0586
     64 H           5.8116    9.3635    4.6360 H       1  UNL1        0.0235
     65 H           4.2564    9.8519    3.9424 H       1  UNL1        0.0235
     66 H           4.3378    8.5229    5.0969 H       1  UNL1        0.0235
     67 C           5.3648   10.0024    7.2059 C.3     1  UNL1       -0.0586
     68 H           6.4236   10.1720    7.0144 H       1  UNL1        0.0235
     69 H           5.2122    8.9393    7.3791 H       1  UNL1        0.0235
     70 H           5.0809   10.5348    8.1083 H       1  UNL1        0.0235
@<TRIPOS>BOND
     1    47    46    1
     2    65    63    1
     3    45    44    1
     4    46    44   ar
     5    46    48   ar
     6    44    43   ar
     7    64    63    1
     8    49    48    1
     9    63    66    1
    10    63    61    1
    11    48    50   ar
    12    56    53    1
    13    55    53    1
    14    36    34    1
    15    43    61    1
    16    43    42   ar
    17    25    24    1
    18    33    32    1
    19    53    54    1
    20    53    51    1
    21    61    62    1
    22    61    67    1
    23    50    42   ar
    24    50    51    1
    25    35    34    1
    26    27    24    1
    27    42     1    1
    28    34    32    1
    29    34    37    1
    30    40    38    1
    31    58    57    1
    32    24    26    1
    33    24    22    1
    34    32    38    1
    35    32     3    1
    36    51    57    1
    37    51    52    1
    38    68    67    1
    39    67    69    1
    40    67    70    1
    41    38    41    1
    42    38    39    1
    43    57    59    1
    44    57    60    1
    45     1     8    1
    46    31    28    1
    47     3    22    1
    48     3    19    1
    49    22    28    1
    50    22    23    1
    51     5     4    1
    52    18    16    1
    53    28    30    1
    54    28    29    1
    55     8     4    1
    56     8     9    1
    57     2    16    1
    58     2    11    1
    59    19    16    1
    60    19    20    1
    61    19    21    1
    62     4     7    1
    63     4     6    1
    64    16    17    1
    65     9    11    2
    66     9    10    1
    67    11    12    1
    68    12    15    1
    69    12    13    1
    70    12    14    1
