@<TRIPOS>MOLECULE
1,3,5
 44 46 0 0 0
SMALL
GASTEIGER

@<TRIPOS>ATOM
      1 N           2.6602   10.4671    9.9575 N.3     1  UNL1        0.0000
      2 N           1.7103   10.3973   10.8995 N.pl3   1  UNL1        0.0000
      3 N           1.6708   13.2329    9.6709 N.3     1  UNL1        0.0000
      4 N           0.7682   12.6732   10.4957 N.pl3   1  UNL1        0.0000
      5 N           3.4740   12.5832   11.9215 N.3     1  UNL1        0.0000
      6 N           2.2779   12.2703   12.4424 N.pl3   1  UNL1        0.0000
      7 C           2.9168    9.2306    9.5433 C.3     1  UNL1        0.0000
      8 C           2.1050    8.3356   10.2463 C.2     1  UNL1        0.0000
      9 H           2.0722    7.2697   10.1408 H       1  UNL1        0.0000
     10 C           1.3511    9.1159   11.1026 C.2     1  UNL1        0.0000
     11 C           3.9101    8.8846    8.4889 C.3     1  UNL1        0.0000
     12 H           4.8789    8.6565    8.9348 H       1  UNL1        0.0000
     13 H           4.0309    9.7103    7.7935 H       1  UNL1        0.0000
     14 H           3.5716    8.0038    7.9464 H       1  UNL1        0.0000
     15 C           0.3265    8.6782   12.0869 C.3     1  UNL1        0.0000
     16 H          -0.6420    9.1231   11.8640 H       1  UNL1        0.0000
     17 H           0.6095    8.9749   13.0958 H       1  UNL1        0.0000
     18 H           0.2319    7.5957   12.0526 H       1  UNL1        0.0000
     19 C           1.0254   14.0739    8.8666 C.3     1  UNL1        0.0000
     20 C          -0.3352   14.0530    9.1859 C.2     1  UNL1        0.0000
     21 H          -1.1167   14.6199    8.7214 H       1  UNL1        0.0000
     22 C          -0.4611   13.1503   10.2236 C.2     1  UNL1        0.0000
     23 C           1.6653   14.8967    7.8060 C.3     1  UNL1        0.0000
     24 H           1.5957   14.3893    6.8443 H       1  UNL1        0.0000
     25 H           2.7145   15.0612    8.0290 H       1  UNL1        0.0000
     26 H           1.1530   15.8537    7.7270 H       1  UNL1        0.0000
     27 C          -1.6994   12.7436   10.9395 C.3     1  UNL1        0.0000
     28 H          -1.6336   12.9843   11.9995 H       1  UNL1        0.0000
     29 H          -1.8658   11.6715   10.8463 H       1  UNL1        0.0000
     30 H          -2.5500   13.2693   10.5129 H       1  UNL1        0.0000
     31 C           4.2290   13.0754   12.8975 C.3     1  UNL1        0.0000
     32 C           3.4943   13.0743   14.0877 C.2     1  UNL1        0.0000
     33 H           3.8227   13.4079   15.0516 H       1  UNL1        0.0000
     34 C           2.2563   12.5578   13.7578 C.2     1  UNL1        0.0000
     35 C           5.6270   13.5533   12.7260 C.3     1  UNL1        0.0000
     36 H           6.0634   13.1520   11.8171 H       1  UNL1        0.0000
     37 H           6.2279   13.2592   13.5854 H       1  UNL1        0.0000
     38 H           5.6408   14.6405   12.6537 H       1  UNL1        0.0000
     39 C           1.0828   12.3410   14.6451 C.3     1  UNL1        0.0000
     40 H           0.2260   12.9168   14.2987 H       1  UNL1        0.0000
     41 H           1.3319   12.6559   15.6554 H       1  UNL1        0.0000
     42 H           0.7972   11.2903   14.6645 H       1  UNL1        0.0000
     43 B           1.1634   11.6614   11.5810 B       1  UNL1        0.0000
     44 H           0.2288   11.3919   12.2496 H       1  UNL1        0.0000
@<TRIPOS>BOND
     1    24    23    1
     2    26    23    1
     3    13    11    1
     4    23    25    1
     5    23    19    1
     6    14    11    1
     7    11    12    1
     8    11     7    1
     9    21    20    1
    10    19    20    1
    11    19     3    1
    12    20    22    2
    13     7     1    1
    14     7     8    1
    15     3     4    1
    16     1     2    1
    17     9     8    1
    18    22     4    1
    19    22    27    1
    20     8    10    2
    21     4    43    1
    22    30    27    1
    23    29    27    1
    24     2    10    1
    25     2    43    1
    26    27    28    1
    27    10    15    1
    28    43    44    1
    29    43     6    1
    30    36    35    1
    31    16    15    1
    32     5     6    1
    33     5    31    1
    34    18    15    1
    35    15    17    1
    36     6    34    1
    37    38    35    1
    38    35    31    1
    39    35    37    1
    40    31    32    1
    41    34    32    2
    42    34    39    1
    43    32    33    1
    44    40    39    1
    45    39    42    1
    46    39    41    1
