@<TRIPOS>MOLECULE
1,8,17
 50 51 0 0 0
SMALL
GASTEIGER

@<TRIPOS>ATOM
      1 N           1.6906    3.5539    1.6210 N.3     1  UNL1        0.0000
      2 N           2.9289    3.0718    1.4092 N.pl3   1  UNL1        0.0000
      3 C           1.0750    3.5449    0.4361 C.3     1  UNL1        0.0000
      4 C           1.9306    3.0269   -0.5386 C.2     1  UNL1        0.0000
      5 C           3.1115    2.7348    0.1172 C.2     1  UNL1        0.0000
      6 C          -0.3105    4.0443    0.2371 C.3     1  UNL1        0.0000
      7 C           4.3698    2.1639   -0.4280 C.3     1  UNL1        0.0000
      8 N           3.0151    4.8915    3.7290 N.3     1  UNL1        0.0000
      9 N           4.0372    4.3107    3.0734 N.pl3   1  UNL1        0.0000
     10 C           3.4851    6.0482    4.2008 C.3     1  UNL1        0.0000
     11 C           4.8319    6.1929    3.8554 C.2     1  UNL1        0.0000
     12 C           5.1547    5.0633    3.1312 C.2     1  UNL1        0.0000
     13 C           2.6667    7.0274    4.9626 C.3     1  UNL1        0.0000
     14 C           6.4510    4.6911    2.5071 C.3     1  UNL1        0.0000
     15 C           3.9168    3.0246    2.4515 C.3     1  UNL1        0.0000
     16 SI          3.6883    1.5902    3.7926 Si      1  UNL1        0.0000
     17 N           2.1823    1.8727    4.4532 N.3     1  UNL1        0.0000
     18 C           5.2945    1.8274    4.8334 C.3     1  UNL1        0.0000
     19 C           4.0763    0.0348    2.7227 C.3     1  UNL1        0.0000
     20 C           1.6917    1.1090    5.5964 C.3     1  UNL1        0.0000
     21 C           2.2625    1.6576    6.9088 C.3     1  UNL1        0.0000
     22 C           1.9869   -0.3869    5.4924 C.3     1  UNL1        0.0000
     23 H           1.7189    2.8837   -1.5785 H       1  UNL1        0.0000
     24 H          -0.5379    4.8338    0.9506 H       1  UNL1        0.0000
     25 H          -0.4230    4.4265   -0.7754 H       1  UNL1        0.0000
     26 H          -1.0235    3.2348    0.3851 H       1  UNL1        0.0000
     27 H           4.2403    1.9608   -1.4875 H       1  UNL1        0.0000
     28 H           5.2032    2.8582   -0.3119 H       1  UNL1        0.0000
     29 H           4.6241    1.2332    0.0764 H       1  UNL1        0.0000
     30 H           5.4789    7.0111    4.0973 H       1  UNL1        0.0000
     31 H           1.6246    6.9694    4.6620 H       1  UNL1        0.0000
     32 H           2.7289    6.8229    6.0314 H       1  UNL1        0.0000
     33 H           3.0450    8.0328    4.7889 H       1  UNL1        0.0000
     34 H           7.1715    5.4852    2.6836 H       1  UNL1        0.0000
     35 H           6.8421    3.7693    2.9361 H       1  UNL1        0.0000
     36 H           6.3464    4.5560    1.4300 H       1  UNL1        0.0000
     37 H           4.8681    2.8226    1.9640 H       1  UNL1        0.0000
     38 H           6.2002    1.7687    4.2345 H       1  UNL1        0.0000
     39 H           5.2985    2.7843    5.3491 H       1  UNL1        0.0000
     40 H           5.3703    1.0550    5.5926 H       1  UNL1        0.0000
     41 H           5.0623    0.0830    2.2655 H       1  UNL1        0.0000
     42 H           4.0535   -0.8626    3.3314 H       1  UNL1        0.0000
     43 H           3.3477   -0.1043    1.9291 H       1  UNL1        0.0000
     44 H           0.5959    1.2326    5.6252 H       1  UNL1        0.0000
     45 H           1.7940    1.1730    7.7624 H       1  UNL1        0.0000
     46 H           2.0847    2.7301    6.9669 H       1  UNL1        0.0000
     47 H           3.3341    1.4801    6.9446 H       1  UNL1        0.0000
     48 H           1.4851   -0.9299    6.2906 H       1  UNL1        0.0000
     49 H           3.0575   -0.5596    5.5695 H       1  UNL1        0.0000
     50 H           1.6409   -0.7652    4.5350 H       1  UNL1        0.0000
@<TRIPOS>BOND
     1    23     4    1
     2    27     7    1
     3    25     6    1
     4     4     5    2
     5     4     3    1
     6     7    28    1
     7     7    29    1
     8     7     5    1
     9     5     2    1
    10     6    26    1
    11     6     3    1
    12     6    24    1
    13     3     1    1
    14     2     1    1
    15     2    15    1
    16    36    14    1
    17    43    19    1
    18    37    15    1
    19    41    19    1
    20    15     9    1
    21    15    16    1
    22    14    34    1
    23    14    35    1
    24    14    12    1
    25    19    42    1
    26    19    16    1
    27     9    12    1
    28     9     8    1
    29    12    11    2
    30     8    10    1
    31    16    17    1
    32    16    18    1
    33    11    30    1
    34    11    10    1
    35    10    13    1
    36    38    18    1
    37    17    20    1
    38    50    22    1
    39    31    13    1
    40    33    13    1
    41    18    39    1
    42    18    40    1
    43    13    32    1
    44    22    49    1
    45    22    20    1
    46    22    48    1
    47    20    44    1
    48    20    21    1
    49    21    47    1
    50    21    46    1
    51    21    45    1
