@<TRIPOS>MOLECULE
1,2,3
 69 72 0 0 0
SMALL
GASTEIGER

@<TRIPOS>ATOM
      1 N           2.7468    8.2999   13.2419 N.ar    1  UNL1       -0.2572
      2 N           3.3177    5.9028   12.3039 N.pl3   1  UNL1       -0.2328
      3 N           2.9851    6.1189    9.7470 N.pl3   1  UNL1       -0.2361
      4 C           2.5339    9.4053   13.9763 C.ar    1  UNL1        0.0280
      5 H           2.2861   10.3451   13.5080 H       1  UNL1        0.0829
      6 C           2.7001    9.1583   15.3362 C.ar    1  UNL1       -0.0419
      7 H           2.5852    9.8675   16.1341 H       1  UNL1        0.0633
      8 C           3.0472    7.8190   15.4514 C.ar    1  UNL1       -0.0364
      9 H           3.2557    7.2795   16.3559 H       1  UNL1        0.0637
     10 C           3.0769    7.3070   14.1494 C.ar    1  UNL1        0.0732
     11 C           3.3945    6.0079   13.6516 C.3     1  UNL1        0.1451
     12 C           3.7630    4.8930   14.4213 C.2     1  UNL1       -0.0505
     13 H           3.8252    4.9797   15.4938 H       1  UNL1        0.0599
     14 C           4.0443    3.7042   13.7835 C.2     1  UNL1       -0.0616
     15 H           4.3377    2.8369   14.3572 H       1  UNL1        0.0616
     16 C           3.9441    3.6145   12.3976 C.2     1  UNL1       -0.0412
     17 H           4.1411    2.6885   11.8810 H       1  UNL1        0.0634
     18 C           3.5708    4.7500   11.6934 C.2     1  UNL1        0.0532
     19 C           3.3737    4.7762   10.1942 C.3     1  UNL1        0.1070
     20 H           4.3197    4.4495    9.7378 H       1  UNL1        0.0631
     21 C           2.2977    3.7508    9.8396 C.ar    1  UNL1       -0.0164
     22 C           1.1730    3.7012   10.6578 C.ar    1  UNL1       -0.0561
     23 H           1.1143    4.3819   11.4972 H       1  UNL1        0.0621
     24 C           0.1556    2.7937   10.4429 C.ar    1  UNL1       -0.0614
     25 H          -0.7047    2.7752   11.0959 H       1  UNL1        0.0618
     26 C           0.2641    1.8948    9.3967 C.ar    1  UNL1       -0.0615
     27 H          -0.5085    1.1602    9.2241 H       1  UNL1        0.0618
     28 C           1.3686    1.9446    8.5686 C.ar    1  UNL1       -0.0580
     29 H           1.4376    1.2393    7.7549 H       1  UNL1        0.0620
     30 C           2.3874    2.8772    8.7506 C.ar    1  UNL1       -0.0394
     31 C           3.5599    2.8779    7.7948 C.3     1  UNL1       -0.0212
     32 H           4.0652    3.8429    7.8597 H       1  UNL1        0.0344
     33 C           3.1370    2.7218    6.3333 C.3     1  UNL1       -0.0586
     34 H           2.7521    1.7270    6.1236 H       1  UNL1        0.0235
     35 H           3.9974    2.8906    5.6895 H       1  UNL1        0.0235
     36 H           2.3773    3.4573    6.0819 H       1  UNL1        0.0235
     37 C           4.5416    1.7708    8.1923 C.3     1  UNL1       -0.0586
     38 H           4.8876    1.9111    9.2150 H       1  UNL1        0.0235
     39 H           5.4050    1.7743    7.5304 H       1  UNL1        0.0235
     40 H           4.0613    0.7965    8.1282 H       1  UNL1        0.0235
     41 C           3.2144    6.3046    8.3671 C.ar    1  UNL1        0.0557
     42 C           4.5241    6.3861    7.8408 C.ar    1  UNL1       -0.0219
     43 C           4.7033    6.4955    6.4699 C.ar    1  UNL1       -0.0565
     44 H           5.7032    6.5514    6.0641 H       1  UNL1        0.0621
     45 C           3.6252    6.5440    5.6068 C.ar    1  UNL1       -0.0611
     46 H           3.7849    6.6262    4.5416 H       1  UNL1        0.0618
     47 C           2.3428    6.5000    6.1192 C.ar    1  UNL1       -0.0565
     48 H           1.5033    6.5520    5.4410 H       1  UNL1        0.0621
     49 C           2.1182    6.3693    7.4805 C.ar    1  UNL1       -0.0219
     50 C           0.7003    6.2892    8.0011 C.3     1  UNL1       -0.0197
     51 H           0.7615    6.1385    9.0870 H       1  UNL1        0.0344
     52 C          -0.0626    5.1136    7.3860 C.3     1  UNL1       -0.0586
     53 H          -0.1971    5.2552    6.3159 H       1  UNL1        0.0235
     54 H          -1.0469    5.0259    7.8426 H       1  UNL1        0.0235
     55 H           0.4708    4.1822    7.5481 H       1  UNL1        0.0235
     56 C          -0.0561    7.5911    7.7301 C.3     1  UNL1       -0.0586
     57 H           0.4629    8.4285    8.1902 H       1  UNL1        0.0235
     58 H          -1.0661    7.5321    8.1337 H       1  UNL1        0.0235
     59 H          -0.1293    7.7797    6.6613 H       1  UNL1        0.0235
     60 C           5.7378    6.4459    8.7472 C.3     1  UNL1       -0.0197
     61 H           5.3939    6.4275    9.7945 H       1  UNL1        0.0344
     62 C           6.7045    5.2808    8.5122 C.3     1  UNL1       -0.0586
     63 H           6.2282    4.3172    8.6807 H       1  UNL1        0.0235
     64 H           7.5544    5.3605    9.1876 H       1  UNL1        0.0235
     65 H           7.0789    5.2960    7.4910 H       1  UNL1        0.0235
     66 C           6.4708    7.7745    8.5483 C.3     1  UNL1       -0.0586
     67 H           6.8513    7.8680    7.5337 H       1  UNL1        0.0235
     68 H           7.3111    7.8410    9.2371 H       1  UNL1        0.0235
     69 H           5.7876    8.5953    8.7471 H       1  UNL1        0.0235
@<TRIPOS>BOND
     1    46    45    1
     2    48    47    1
     3    45    47   ar
     4    45    43   ar
     5    35    33    1
     6    44    43    1
     7    36    33    1
     8    47    49   ar
     9    34    33    1
    10    53    52    1
    11    33    31    1
    12    43    42   ar
    13    59    56    1
    14    52    55    1
    15    52    54    1
    16    52    50    1
    17    49    50    1
    18    49    41   ar
    19    65    62    1
    20    39    37    1
    21    67    66    1
    22    56    50    1
    23    56    58    1
    24    56    57    1
    25    29    28    1
    26    31    32    1
    27    31    37    1
    28    31    30    1
    29    42    41   ar
    30    42    60    1
    31    50    51    1
    32    40    37    1
    33    37    38    1
    34    41     3    1
    35    62    63    1
    36    62    60    1
    37    62    64    1
    38    66    69    1
    39    66    60    1
    40    66    68    1
    41    28    30   ar
    42    28    26   ar
    43    60    61    1
    44    30    21   ar
    45    27    26    1
    46    26    24   ar
    47    20    19    1
    48     3    19    1
    49    21    19    1
    50    21    22   ar
    51    19    18    1
    52    24    22   ar
    53    24    25    1
    54    22    23    1
    55    18     2    1
    56    18    16    2
    57    17    16    1
    58     2    11    1
    59    16    14    1
    60     1     4   ar
    61     1    10   ar
    62     5     4    1
    63    11    10    1
    64    11    12    1
    65    14    15    1
    66    14    12    2
    67     4     6   ar
    68    10     8   ar
    69    12    13    1
    70     6     8   ar
    71     6     7    1
    72     8     9    1
