@<TRIPOS>MOLECULE
3,4,5
 67 67 0 0 0
SMALL
GASTEIGER

@<TRIPOS>ATOM
      1 SI         11.3768    6.4253    8.9769 Si      1  UNL1        0.0000
      2 SI         14.3600    1.2251    6.7504 Si      1  UNL1        0.0000
      3 N          12.0027    4.8300    8.9250 N.3     1  UNL1        0.0000
      4 N          13.5687    2.2236    7.8899 N.3     1  UNL1        0.0000
      5 N          11.3468    2.1923    9.7005 N.pl3   1  UNL1        0.0000
      6 C          13.1806    4.6493    9.7459 C.3     1  UNL1        0.0000
      7 H          13.1038    5.2697   10.6497 H       1  UNL1        0.0000
      8 H          14.0900    4.9918    9.2186 H       1  UNL1        0.0000
      9 C          13.4768    3.2062   10.2559 C.3     1  UNL1        0.0000
     10 C          14.1990    2.3451    9.1830 C.3     1  UNL1        0.0000
     11 H          15.1990    2.7968    9.0707 H       1  UNL1        0.0000
     12 H          14.3584    1.3469    9.6321 H       1  UNL1        0.0000
     13 C          14.4726    3.3502   11.4189 C.3     1  UNL1        0.0000
     14 H          14.0658    3.9593   12.2227 H       1  UNL1        0.0000
     15 H          15.3736    3.8434   11.0603 H       1  UNL1        0.0000
     16 H          14.7560    2.3766   11.8138 H       1  UNL1        0.0000
     17 C          12.2029    2.5233   10.6789 C.3     1  UNL1        0.0000
     18 C          11.9207    2.2256   12.0150 C.2     1  UNL1        0.0000
     19 H          12.6063    2.5006   12.7978 H       1  UNL1        0.0000
     20 C          10.7492    1.5730   12.3467 C.2     1  UNL1        0.0000
     21 H          10.5210    1.3481   13.3779 H       1  UNL1        0.0000
     22 C           9.8860    1.2047   11.3267 C.2     1  UNL1        0.0000
     23 H           8.9682    0.6769   11.5293 H       1  UNL1        0.0000
     24 C          10.2320    1.5337   10.0295 C.2     1  UNL1        0.0000
     25 H           9.5853    1.2387    9.2128 H       1  UNL1        0.0000
     26 C          10.1358    6.7128    7.5568 C.3     1  UNL1        0.0000
     27 H          10.4981    6.2576    6.6418 H       1  UNL1        0.0000
     28 H          10.0422    7.7775    7.3750 H       1  UNL1        0.0000
     29 H           9.1412    6.3354    7.7588 H       1  UNL1        0.0000
     30 C          12.7192    7.7823    8.7231 C.3     1  UNL1        0.0000
     31 H          13.1416    7.7065    7.7253 H       1  UNL1        0.0000
     32 H          13.5358    7.6863    9.4317 H       1  UNL1        0.0000
     33 H          12.3110    8.7826    8.8282 H       1  UNL1        0.0000
     34 C          10.5135    6.7957   10.7025 C.3     1  UNL1        0.0000
     35 C           9.3307    7.7480   10.5179 C.3     1  UNL1        0.0000
     36 H           8.5769    7.3126    9.8687 H       1  UNL1        0.0000
     37 H           9.6596    8.6834   10.0729 H       1  UNL1        0.0000
     38 H           8.8648    7.9723   11.4780 H       1  UNL1        0.0000
     39 C          11.4810    7.4515   11.6914 C.3     1  UNL1        0.0000
     40 H          10.9809    7.6432   12.6418 H       1  UNL1        0.0000
     41 H          11.8464    8.3984   11.3051 H       1  UNL1        0.0000
     42 H          12.3390    6.8124   11.8889 H       1  UNL1        0.0000
     43 C          10.0007    5.4975   11.3334 C.3     1  UNL1        0.0000
     44 H           9.2617    5.0167   10.6974 H       1  UNL1        0.0000
     45 H           9.5377    5.6977   12.3010 H       1  UNL1        0.0000
     46 H          10.8172    4.7942   11.4866 H       1  UNL1        0.0000
     47 C          13.3776    1.5629    5.1451 C.3     1  UNL1        0.0000
     48 H          12.4106    2.0124    5.3847 H       1  UNL1        0.0000
     49 H          13.1951    0.6486    4.5919 H       1  UNL1        0.0000
     50 H          13.9123    2.2393    4.4858 H       1  UNL1        0.0000
     51 C          14.3252   -0.6494    7.2187 C.3     1  UNL1        0.0000
     52 H          13.6137   -0.8450    8.0148 H       1  UNL1        0.0000
     53 H          15.2897   -1.0066    7.5622 H       1  UNL1        0.0000
     54 H          14.0407   -1.2586    6.3681 H       1  UNL1        0.0000
     55 C          16.2513    1.5674    6.3577 C.3     1  UNL1        0.0000
     56 C          16.4991    3.0572    6.1142 C.3     1  UNL1        0.0000
     57 H          15.8474    3.4476    5.3365 H       1  UNL1        0.0000
     58 H          17.5319    3.2266    5.8076 H       1  UNL1        0.0000
     59 H          16.3209    3.6261    7.0233 H       1  UNL1        0.0000
     60 C          17.1816    1.1220    7.4901 C.3     1  UNL1        0.0000
     61 H          16.9263    1.6087    8.4278 H       1  UNL1        0.0000
     62 H          18.2144    1.3752    7.2485 H       1  UNL1        0.0000
     63 H          17.1321    0.0476    7.6438 H       1  UNL1        0.0000
     64 C          16.6485    0.7961    5.0953 C.3     1  UNL1        0.0000
     65 H          16.4835   -0.2700    5.2260 H       1  UNL1        0.0000
     66 H          17.7036    0.9527    4.8707 H       1  UNL1        0.0000
     67 H          16.0670    1.1274    4.2399 H       1  UNL1        0.0000
@<TRIPOS>BOND
     1    67    64    1
     2    50    47    1
     3    49    47    1
     4    66    64    1
     5    64    65    1
     6    64    55    1
     7    47    48    1
     8    47     2    1
     9    57    56    1
    10    58    56    1
    11    56    55    1
    12    56    59    1
    13    55     2    1
    14    55    60    1
    15    54    51    1
    16    27    26    1
    17     2    51    1
    18     2     4    1
    19    51    53    1
    20    51    52    1
    21    62    60    1
    22    28    26    1
    23    60    63    1
    24    60    61    1
    25    26    29    1
    26    26     1    1
    27    31    30    1
    28     4    10    1
    29    30    33    1
    30    30     1    1
    31    30    32    1
    32     3     1    1
    33     3     6    1
    34     1    34    1
    35    11    10    1
    36    10    12    1
    37    10     9    1
    38    25    24    1
    39     8     6    1
    40     5    24    1
    41     5    17    1
    42     6     9    1
    43     6     7    1
    44    36    35    1
    45    24    22    2
    46    37    35    1
    47     9    17    1
    48     9    13    1
    49    35    34    1
    50    35    38    1
    51    17    18    1
    52    44    43    1
    53    34    43    1
    54    34    39    1
    55    15    13    1
    56    41    39    1
    57    22    23    1
    58    22    20    1
    59    43    46    1
    60    43    45    1
    61    13    16    1
    62    13    14    1
    63    39    42    1
    64    39    40    1
    65    18    20    2
    66    18    19    1
    67    20    21    1
