@<TRIPOS>MOLECULE
3,4,5
 67 67 0 0 0
SMALL
GASTEIGER

@<TRIPOS>ATOM
      1 SI         14.8677    7.9395   45.6018 Si      1  UNL1        0.0000
      2 SI          9.2068    5.4961   47.2110 Si      1  UNL1        0.0000
      3 N          13.2539    7.8255   46.1475 N.3     1  UNL1        0.0000
      4 N          10.3918    6.6958   46.8755 N.3     1  UNL1        0.0000
      5 N          11.2109    8.5218   44.6081 N.pl3   1  UNL1        0.0000
      6 C          12.7364    8.8254   47.0475 C.3     1  UNL1        0.0000
      7 H          13.2393    9.7898   46.8852 H       1  UNL1        0.0000
      8 H          12.9456    8.5470   48.0929 H       1  UNL1        0.0000
      9 C          11.2051    9.1264   46.9601 C.3     1  UNL1        0.0000
     10 C          10.3076    7.9800   47.5213 C.3     1  UNL1        0.0000
     11 H          10.5622    7.8974   48.5939 H       1  UNL1        0.0000
     12 H           9.2700    8.3596   47.4811 H       1  UNL1        0.0000
     13 C          10.9622   10.3316   47.8843 C.3     1  UNL1        0.0000
     14 H          11.4985   11.2106   47.5337 H       1  UNL1        0.0000
     15 H          11.3262   10.0965   48.8821 H       1  UNL1        0.0000
     16 H           9.9027   10.5645   47.9652 H       1  UNL1        0.0000
     17 C          10.8564    9.4340   45.5265 C.3     1  UNL1        0.0000
     18 C          10.2391   10.6285   45.1451 C.2     1  UNL1        0.0000
     19 H           9.9304   11.3470   45.8846 H       1  UNL1        0.0000
     20 C          10.0131   10.8968   43.8088 C.2     1  UNL1        0.0000
     21 H           9.5293   11.8145   43.5097 H       1  UNL1        0.0000
     22 C          10.4304    9.9708   42.8647 C.2     1  UNL1        0.0000
     23 H          10.2965   10.1408   41.8090 H       1  UNL1        0.0000
     24 C          11.0110    8.8025   43.3174 C.2     1  UNL1        0.0000
     25 H          11.3295    8.0529   42.6042 H       1  UNL1        0.0000
     26 C          15.2227    6.2614   44.7623 C.3     1  UNL1        0.0000
     27 H          15.5021    5.5081   45.4926 H       1  UNL1        0.0000
     28 H          16.0422    6.3350   44.0556 H       1  UNL1        0.0000
     29 H          14.3441    5.9036   44.2194 H       1  UNL1        0.0000
     30 C          16.1195    8.2356   47.0277 C.3     1  UNL1        0.0000
     31 H          16.0508    9.2488   47.4122 H       1  UNL1        0.0000
     32 H          17.1427    8.0723   46.7086 H       1  UNL1        0.0000
     33 H          15.9210    7.5593   47.8533 H       1  UNL1        0.0000
     34 C          15.1892    9.3151   44.2492 C.3     1  UNL1        0.0000
     35 C          16.6864    9.5517   44.0509 C.3     1  UNL1        0.0000
     36 H          16.8575   10.2606   43.2401 H       1  UNL1        0.0000
     37 H          17.1935    8.6229   43.8023 H       1  UNL1        0.0000
     38 H          17.1365    9.9547   44.9539 H       1  UNL1        0.0000
     39 C          14.5877    8.8608   42.9182 C.3     1  UNL1        0.0000
     40 H          13.5366    8.6072   43.0526 H       1  UNL1        0.0000
     41 H          15.1067    7.9846   42.5383 H       1  UNL1        0.0000
     42 H          14.6605    9.6515   42.1697 H       1  UNL1        0.0000
     43 C          14.5361   10.6432   44.6345 C.3     1  UNL1        0.0000
     44 H          14.7490   11.4088   43.8866 H       1  UNL1        0.0000
     45 H          14.9132   10.9974   45.5920 H       1  UNL1        0.0000
     46 H          13.4545   10.5341   44.7046 H       1  UNL1        0.0000
     47 C           9.5879    4.0478   46.0183 C.3     1  UNL1        0.0000
     48 H          10.1379    4.3872   45.1372 H       1  UNL1        0.0000
     49 H           8.6655    3.5869   45.6802 H       1  UNL1        0.0000
     50 H          10.1783    3.2742   46.5017 H       1  UNL1        0.0000
     51 C           7.4303    6.1380   46.8036 C.3     1  UNL1        0.0000
     52 H           7.2901    7.1643   47.1318 H       1  UNL1        0.0000
     53 H           6.6674    5.5406   47.2898 H       1  UNL1        0.0000
     54 H           7.2323    6.1041   45.7371 H       1  UNL1        0.0000
     55 C           9.0840    4.7868   49.0261 C.3     1  UNL1        0.0000
     56 C          10.4570    4.4199   49.5940 C.3     1  UNL1        0.0000
     57 H          10.3452    3.8361   50.5080 H       1  UNL1        0.0000
     58 H          11.0253    5.3123   49.8408 H       1  UNL1        0.0000
     59 H          11.0370    3.8303   48.8859 H       1  UNL1        0.0000
     60 C           8.2262    3.5186   49.0085 C.3     1  UNL1        0.0000
     61 H           8.7002    2.7440   48.4131 H       1  UNL1        0.0000
     62 H           7.2410    3.7129   48.5931 H       1  UNL1        0.0000
     63 H           8.0962    3.1374   50.0212 H       1  UNL1        0.0000
     64 C           8.4271    5.7990   49.9683 C.3     1  UNL1        0.0000
     65 H           7.4176    6.0354   49.6428 H       1  UNL1        0.0000
     66 H           8.9968    6.7252   50.0039 H       1  UNL1        0.0000
     67 H           8.3723    5.3965   50.9799 H       1  UNL1        0.0000
@<TRIPOS>BOND
     1    23    22    1
     2    42    39    1
     3    41    39    1
     4    25    24    1
     5    22    24    2
     6    22    20    1
     7    39    40    1
     8    39    34    1
     9    36    35    1
    10    24     5    1
    11    21    20    1
    12    37    35    1
    13    20    18    2
    14    44    43    1
    15    35    34    1
    16    35    38    1
    17    28    26    1
    18    29    26    1
    19    34    43    1
    20    34     1    1
    21     5    17    1
    22    43    46    1
    23    43    45    1
    24    26    27    1
    25    26     1    1
    26    48    47    1
    27    18    17    1
    28    18    19    1
    29    17     9    1
    30     1     3    1
    31     1    30    1
    32    49    47    1
    33    54    51    1
    34    47    50    1
    35    47     2    1
    36     3     6    1
    37    32    30    1
    38    51    52    1
    39    51     2    1
    40    51    53    1
    41     4     2    1
    42     4    10    1
    43     7     6    1
    44     9     6    1
    45     9    10    1
    46     9    13    1
    47    30    31    1
    48    30    33    1
    49     6     8    1
    50     2    55    1
    51    12    10    1
    52    10    11    1
    53    14    13    1
    54    13    16    1
    55    13    15    1
    56    61    60    1
    57    62    60    1
    58    59    56    1
    59    60    55    1
    60    60    63    1
    61    55    56    1
    62    55    64    1
    63    56    58    1
    64    56    57    1
    65    65    64    1
    66    64    66    1
    67    64    67    1
