@<TRIPOS>MOLECULE
1,2,3
 107 112 0 0 0
SMALL
GASTEIGER

@<TRIPOS>ATOM
      1 N           1.1779    3.7035    8.1623 N.pl3   1  UNL1       -0.2058
      2 N           3.6098    4.6357    7.8481 N.3     1  UNL1       -0.1444
      3 N           4.4905    3.3185    9.9250 N.pl3   1  UNL1       -0.2058
      4 P           2.3196    4.0302    7.0827 P.3     1  UNL1        0.1050
      5 P           4.9224    3.9599    8.5217 P.3     1  UNL1        0.1050
      6 C          -0.2033    3.5788    7.8823 C.ar    1  UNL1        0.0608
      7 C          -1.0366    4.7097    7.9810 C.ar    1  UNL1       -0.0216
      8 C          -2.4044    4.5643    7.8034 C.ar    1  UNL1       -0.0565
      9 H          -3.0446    5.4288    7.8902 H       1  UNL1        0.0621
     10 C          -2.9637    3.3347    7.5159 C.ar    1  UNL1       -0.0611
     11 H          -4.0305    3.2397    7.3752 H       1  UNL1        0.0618
     12 C          -2.1450    2.2286    7.4119 C.ar    1  UNL1       -0.0565
     13 H          -2.5804    1.2669    7.1840 H       1  UNL1        0.0621
     14 C          -0.7736    2.3281    7.5961 C.ar    1  UNL1       -0.0216
     15 C          -0.4786    6.0739    8.3107 C.3     1  UNL1       -0.0197
     16 H           0.6087    6.0473    8.1534 H       1  UNL1        0.0344
     17 C          -1.0527    7.1744    7.4154 C.3     1  UNL1       -0.0586
     18 H          -1.0394    6.8736    6.3710 H       1  UNL1        0.0235
     19 H          -0.4569    8.0788    7.5178 H       1  UNL1        0.0235
     20 H          -2.0759    7.4135    7.6948 H       1  UNL1        0.0235
     21 C          -0.7515    6.4169    9.7793 C.3     1  UNL1       -0.0586
     22 H          -1.8198    6.3664    9.9797 H       1  UNL1        0.0235
     23 H          -0.4043    7.4242    9.9931 H       1  UNL1        0.0235
     24 H          -0.2362    5.7222   10.4537 H       1  UNL1        0.0235
     25 C           0.0777    1.0886    7.4715 C.3     1  UNL1       -0.0197
     26 H           1.1062    1.3614    7.7216 H       1  UNL1        0.0344
     27 C          -0.3644   -0.0020    8.4472 C.3     1  UNL1       -0.0586
     28 H          -0.3256    0.3678    9.4686 H       1  UNL1        0.0235
     29 H           0.2947   -0.8643    8.3620 H       1  UNL1        0.0235
     30 H          -1.3794   -0.3317    8.2396 H       1  UNL1        0.0235
     31 C           0.0501    0.5645    6.0338 C.3     1  UNL1       -0.0586
     32 H          -0.9508    0.2361    5.7628 H       1  UNL1        0.0235
     33 H           0.7312   -0.2774    5.9244 H       1  UNL1        0.0235
     34 H           0.3571    1.3404    5.3347 H       1  UNL1        0.0235
     35 C           1.8035    5.3185    5.9050 C.ar    1  UNL1        0.0096
     36 C           0.6677    5.0908    5.1345 C.ar    1  UNL1       -0.0515
     37 H           0.1286    4.1581    5.2443 H       1  UNL1        0.0625
     38 C           0.2371    6.0530    4.2392 C.ar    1  UNL1       -0.0611
     39 H          -0.6406    5.8737    3.6349 H       1  UNL1        0.0618
     40 C           0.9315    7.2475    4.1210 C.ar    1  UNL1       -0.0617
     41 H           0.5931    7.9989    3.4228 H       1  UNL1        0.0618
     42 C           2.0541    7.4803    4.8988 C.ar    1  UNL1       -0.0611
     43 H           2.5906    8.4133    4.8073 H       1  UNL1        0.0618
     44 C           2.4934    6.5165    5.7889 C.ar    1  UNL1       -0.0515
     45 H           3.3747    6.6757    6.3943 H       1  UNL1        0.0625
     46 C           2.8219    2.6491    5.9784 C.ar    1  UNL1        0.0096
     47 C           2.8040    2.7292    4.5927 C.ar    1  UNL1       -0.0515
     48 H           2.4548    3.6272    4.1040 H       1  UNL1        0.0625
     49 C           3.2435    1.6590    3.8326 C.ar    1  UNL1       -0.0611
     50 H           3.2253    1.7272    2.7545 H       1  UNL1        0.0618
     51 C           3.7045    0.5067    4.4459 C.ar    1  UNL1       -0.0617
     52 H           4.0419   -0.3266    3.8476 H       1  UNL1        0.0618
     53 C           3.7393    0.4277    5.8282 C.ar    1  UNL1       -0.0611
     54 H           4.1112   -0.4635    6.3116 H       1  UNL1        0.0618
     55 C           3.3062    1.4980    6.5864 C.ar    1  UNL1       -0.0515
     56 H           3.3500    1.4581    7.6656 H       1  UNL1        0.0625
     57 C           5.8128    2.8096    7.4177 C.ar    1  UNL1        0.0096
     58 C           5.8746    3.0879    6.0568 C.ar    1  UNL1       -0.0515
     59 H           5.3734    3.9673    5.6760 H       1  UNL1        0.0625
     60 C           6.5678    2.2453    5.2107 C.ar    1  UNL1       -0.0611
     61 H           6.6071    2.4557    4.1521 H       1  UNL1        0.0618
     62 C           7.2162    1.1314    5.7232 C.ar    1  UNL1       -0.0617
     63 H           7.7557    0.4707    5.0608 H       1  UNL1        0.0618
     64 C           7.1864    0.8729    7.0830 C.ar    1  UNL1       -0.0611
     65 H           7.7101    0.0170    7.4838 H       1  UNL1        0.0618
     66 C           6.4886    1.7137    7.9343 C.ar    1  UNL1       -0.0515
     67 H           6.4719    1.5306    8.9997 H       1  UNL1        0.0625
     68 C           6.0471    5.4170    8.4558 C.ar    1  UNL1        0.0096
     69 C           7.3162    5.3815    7.8949 C.ar    1  UNL1       -0.0515
     70 H           7.7172    4.4534    7.5133 H       1  UNL1        0.0625
     71 C           8.0730    6.5384    7.8168 C.ar    1  UNL1       -0.0611
     72 H           9.0603    6.5023    7.3793 H       1  UNL1        0.0618
     73 C           7.5675    7.7358    8.2925 C.ar    1  UNL1       -0.0617
     74 H           8.1584    8.6374    8.2247 H       1  UNL1        0.0618
     75 C           6.3019    7.7750    8.8568 C.ar    1  UNL1       -0.0611
     76 H           5.9040    8.7077    9.2281 H       1  UNL1        0.0618
     77 C           5.5480    6.6203    8.9427 C.ar    1  UNL1       -0.0515
     78 H           4.5624    6.6360    9.3903 H       1  UNL1        0.0625
     79 C           5.1569    2.5252   10.8817 C.ar    1  UNL1        0.0608
     80 C           6.1966    3.0315   11.6809 C.ar    1  UNL1       -0.0216
     81 C           6.7696    2.2234   12.6517 C.ar    1  UNL1       -0.0565
     82 H           7.5760    2.6130   13.2549 H       1  UNL1        0.0621
     83 C           6.3315    0.9317   12.8602 C.ar    1  UNL1       -0.0611
     84 H           6.7910    0.3135   13.6171 H       1  UNL1        0.0618
     85 C           5.2957    0.4403   12.0905 C.ar    1  UNL1       -0.0565
     86 H           4.9537   -0.5707   12.2544 H       1  UNL1        0.0621
     87 C           4.6900    1.2133   11.1113 C.ar    1  UNL1       -0.0216
     88 C           3.5719    0.5997   10.2964 C.3     1  UNL1       -0.0197
     89 H           3.1540    1.3787    9.6431 H       1  UNL1        0.0344
     90 C           4.1079   -0.5475    9.4324 C.3     1  UNL1       -0.0586
     91 H           4.9109   -0.2101    8.7804 H       1  UNL1        0.0235
     92 H           3.3092   -0.9557    8.8150 H       1  UNL1        0.0235
     93 H           4.4932   -1.3471   10.0614 H       1  UNL1        0.0235
     94 C           2.4250    0.0929   11.1726 C.3     1  UNL1       -0.0586
     95 H           2.7831   -0.5832   11.9445 H       1  UNL1        0.0235
     96 H           1.7075   -0.4466   10.5578 H       1  UNL1        0.0235
     97 H           1.9171    0.9346   11.6390 H       1  UNL1        0.0235
     98 C           6.7319    4.4275   11.4829 C.3     1  UNL1       -0.0197
     99 H           6.0863    4.9412   10.7645 H       1  UNL1        0.0344
    100 C           6.7144    5.2523   12.7702 C.3     1  UNL1       -0.0586
    101 H           5.7087    5.2961   13.1802 H       1  UNL1        0.0235
    102 H           7.0446    6.2676   12.5581 H       1  UNL1        0.0235
    103 H           7.3765    4.8305   13.5224 H       1  UNL1        0.0235
    104 C           8.1492    4.3625   10.9091 C.3     1  UNL1       -0.0586
    105 H           8.8294    3.9048   11.6240 H       1  UNL1        0.0235
    106 H           8.5111    5.3620   10.6760 H       1  UNL1        0.0235
    107 H           8.1646    3.7694    9.9962 H       1  UNL1        0.0235
@<TRIPOS>BOND
     1    50    49    1
     2    41    40    1
     3    39    38    1
     4    49    51   ar
     5    49    47   ar
     6    52    51    1
     7    48    47    1
     8    40    38   ar
     9    40    42   ar
    10    61    60    1
    11    38    36   ar
    12    51    53   ar
    13    47    46   ar
    14    43    42    1
    15    42    44   ar
    16    63    62    1
    17    36    37    1
    18    36    35   ar
    19    60    62   ar
    20    60    58   ar
    21    34    31    1
    22    59    58    1
    23    62    64   ar
    24    32    31    1
    25    44    35   ar
    26    44    45    1
    27    53    54    1
    28    53    55   ar
    29    35     4    1
    30    33    31    1
    31    46    55   ar
    32    46     4    1
    33    31    25    1
    34    58    57   ar
    35    18    17    1
    36    55    56    1
    37     4     2    1
    38     4     1    1
    39    64    65    1
    40    64    66   ar
    41    13    12    1
    42    11    10    1
    43    72    71    1
    44    12    10   ar
    45    12    14   ar
    46    17    19    1
    47    17    20    1
    48    17    15    1
    49    57    66   ar
    50    57     5    1
    51    25    14    1
    52    25    26    1
    53    25    27    1
    54    70    69    1
    55    10     8   ar
    56    14     6   ar
    57     8     9    1
    58     8     7   ar
    59    71    69   ar
    60    71    73   ar
    61     2     5    1
    62     6     7   ar
    63     6     1    1
    64    69    68   ar
    65    66    67    1
    66     7    15    1
    67    16    15    1
    68    74    73    1
    69    30    27    1
    70    73    75   ar
    71    15    21    1
    72    29    27    1
    73    27    28    1
    74    68     5    1
    75    68    77   ar
    76     5     3    1
    77    91    90    1
    78    92    90    1
    79    75    77   ar
    80    75    76    1
    81    77    78    1
    82    90    93    1
    83    90    88    1
    84    89    88    1
    85    21    22    1
    86    21    23    1
    87    21    24    1
    88     3    79    1
    89   107   104    1
    90    88    87    1
    91    88    94    1
    92    96    94    1
    93   106   104    1
    94    99    98    1
    95    79    87   ar
    96    79    80   ar
    97   104    98    1
    98   104   105    1
    99    87    85   ar
   100    94    97    1
   101    94    95    1
   102    98    80    1
   103    98   100    1
   104    80    81   ar
   105    85    86    1
   106    85    83   ar
   107   102   100    1
   108    81    83   ar
   109    81    82    1
   110   100   101    1
   111   100   103    1
   112    83    84    1
