@<TRIPOS>MOLECULE
1,2,3
 39 38 0 0 0
SMALL
GASTEIGER

@<TRIPOS>ATOM
      1 N           5.0750    8.6450    7.6843 N.3     1  UNL1       -0.3028
      2 N           3.7114    7.1018    5.9729 N.3     1  UNL1       -0.2363
      3 N           2.5563    8.5905    8.4832 N.3     1  UNL1       -0.2363
      4 C           6.2610    9.1891    7.0350 C.3     1  UNL1       -0.0127
      5 C           5.2113    7.2000    7.8732 C.3     1  UNL1        0.0128
      6 C           4.8676    6.4753    6.5695 C.3     1  UNL1        0.0270
      7 C           4.8422    9.3273    8.9534 C.3     1  UNL1        0.0128
      8 C           3.4818    8.9192    9.5431 C.3     1  UNL1        0.0270
      9 C           3.0776    6.3260    4.9218 C.3     1  UNL1        0.0198
     10 C           2.1665    5.2179    5.4954 C.3     1  UNL1       -0.0484
     11 C           4.0575    5.6940    3.9160 C.3     1  UNL1       -0.0484
     12 C           1.3245    7.9707    8.9306 C.3     1  UNL1        0.0198
     13 C           0.6199    8.7302   10.0681 C.3     1  UNL1       -0.0484
     14 C           1.5277    6.4944    9.3370 C.3     1  UNL1       -0.0484
     15 H           7.1530    9.0613    7.6693 H       1  UNL1        0.0391
     16 H           6.1235   10.2535    6.8385 H       1  UNL1        0.0391
     17 H           6.4340    8.6820    6.0861 H       1  UNL1        0.0391
     18 H           6.2280    6.9377    8.2138 H       1  UNL1        0.0439
     19 H           4.4931    6.8834    8.6309 H       1  UNL1        0.0439
     20 H           4.6958    5.4091    6.8050 H       1  UNL1        0.0453
     21 H           5.7442    6.5084    5.8898 H       1  UNL1        0.0453
     22 H           5.6501    9.1069    9.6748 H       1  UNL1        0.0439
     23 H           4.8442   10.4050    8.7588 H       1  UNL1        0.0439
     24 H           3.1192    9.7626   10.1595 H       1  UNL1        0.0453
     25 H           3.6227    8.0677   10.2372 H       1  UNL1        0.0453
     26 H           2.4431    7.0267    4.3557 H       1  UNL1        0.0471
     27 H           2.7595    4.4512    5.9918 H       1  UNL1        0.0245
     28 H           1.4729    5.6465    6.2199 H       1  UNL1        0.0245
     29 H           1.5977    4.7456    4.6977 H       1  UNL1        0.0245
     30 H           4.7393    6.4427    3.5194 H       1  UNL1        0.0245
     31 H           3.4964    5.2711    3.0861 H       1  UNL1        0.0245
     32 H           4.6381    4.8966    4.3751 H       1  UNL1        0.0245
     33 H           0.6427    7.9860    8.0663 H       1  UNL1        0.0471
     34 H           0.5203    9.7816    9.8077 H       1  UNL1        0.0245
     35 H           1.1677    8.6439   11.0043 H       1  UNL1        0.0245
     36 H          -0.3770    8.3214   10.2138 H       1  UNL1        0.0245
     37 H           0.5649    6.0081    9.4743 H       1  UNL1        0.0245
     38 H           2.0801    5.9759    8.5524 H       1  UNL1        0.0245
     39 H           2.0807    6.4171   10.2719 H       1  UNL1        0.0245
@<TRIPOS>BOND
     1    31    11    1
     2    30    11    1
     3    11    32    1
     4    11     9    1
     5    26     9    1
     6    29    10    1
     7     9    10    1
     8     9     2    1
     9    10    27    1
    10    10    28    1
    11    21     6    1
    12     2     6    1
    13    17     4    1
    14     6    20    1
    15     6     5    1
    16    16     4    1
    17     4    15    1
    18     4     1    1
    19     1     5    1
    20     1     7    1
    21     5    18    1
    22     5    19    1
    23    33    12    1
    24     3    12    1
    25     3     8    1
    26    38    14    1
    27    23     7    1
    28    12    14    1
    29    12    13    1
    30     7     8    1
    31     7    22    1
    32    14    37    1
    33    14    39    1
    34     8    24    1
    35     8    25    1
    36    34    13    1
    37    13    36    1
    38    13    35    1
