@<TRIPOS>MOLECULE
7,8,10
 61 60 0 0 0
SMALL
GASTEIGER

@<TRIPOS>ATOM
      1 SI          6.6764    5.2051   14.2238 Si      1  UNL1        0.0000
      2 SI          1.0664    2.5443   13.5858 Si      1  UNL1        0.0000
      3 SI          5.5818    1.3890   10.4435 Si      1  UNL1        0.0000
      4 C           2.1782    5.2734   11.7703 C.3     1  UNL1        0.0000
      5 H           1.3668    4.6931   11.3265 H       1  UNL1        0.0000
      6 H           2.0364    6.3339   11.5093 H       1  UNL1        0.0000
      7 N           2.3689    3.6411   13.5501 N.3     1  UNL1        0.0000
      8 N           4.1565    2.0544   11.0943 N.3     1  UNL1        0.0000
      9 N           3.4595    4.7632   11.2829 N.3     1  UNL1        0.0000
     10 N           5.7472    4.5232   12.9666 N.3     1  UNL1        0.0000
     11 C           3.1108    2.5769   10.2462 C.3     1  UNL1        0.0000
     12 H           2.1340    2.4505   10.7391 H       1  UNL1        0.0000
     13 H           3.0625    2.0645    9.2735 H       1  UNL1        0.0000
     14 C           7.0063    1.7817   11.6708 C.3     1  UNL1        0.0000
     15 H           6.6447    2.4070   12.4981 H       1  UNL1        0.0000
     16 H           7.8242    2.3045   11.1824 H       1  UNL1        0.0000
     17 H           7.4203    0.8719   12.0908 H       1  UNL1        0.0000
     18 C           5.8839    6.7217   15.1214 C.3     1  UNL1        0.0000
     19 H           4.9417    6.4716   15.5995 H       1  UNL1        0.0000
     20 H           5.6976    7.5400   14.4299 H       1  UNL1        0.0000
     21 H           6.5452    7.0998   15.8945 H       1  UNL1        0.0000
     22 C           8.3726    5.8651   13.6007 C.3     1  UNL1        0.0000
     23 H           8.8697    5.1390   12.9644 H       1  UNL1        0.0000
     24 H           9.0369    6.0832   14.4301 H       1  UNL1        0.0000
     25 H           8.2625    6.7831   13.0311 H       1  UNL1        0.0000
     26 C           4.5031    5.7871   11.2884 C.3     1  UNL1        0.0000
     27 H           4.2835    6.5216   12.0698 H       1  UNL1        0.0000
     28 H           4.5616    6.3126   10.3211 H       1  UNL1        0.0000
     29 C           5.8378    5.1181   11.6477 C.3     1  UNL1        0.0000
     30 H           6.0601    4.3399   10.8965 H       1  UNL1        0.0000
     31 H           6.6328    5.8726   11.5838 H       1  UNL1        0.0000
     32 C           1.8335    0.8200   13.2483 C.3     1  UNL1        0.0000
     33 H           2.6666    0.8959   12.5405 H       1  UNL1        0.0000
     34 H           1.0947    0.1396   12.8355 H       1  UNL1        0.0000
     35 H           2.2064    0.3647   14.1603 H       1  UNL1        0.0000
     36 C           0.0757    2.6078   15.2378 C.3     1  UNL1        0.0000
     37 H          -0.6990    3.3672   15.1891 H       1  UNL1        0.0000
     38 H           0.7095    2.8556   16.0832 H       1  UNL1        0.0000
     39 H          -0.4161    1.6634   15.4493 H       1  UNL1        0.0000
     40 C           2.1349    5.0434   13.2924 C.3     1  UNL1        0.0000
     41 H           2.9270    5.6505   13.7649 H       1  UNL1        0.0000
     42 H           1.1655    5.3863   13.6823 H       1  UNL1        0.0000
     43 C           3.3488    4.0796    9.9928 C.3     1  UNL1        0.0000
     44 H           4.2932    4.1752    9.4512 H       1  UNL1        0.0000
     45 H           2.5486    4.5137    9.3737 H       1  UNL1        0.0000
     46 C           5.4356   -0.5092   10.1538 C.3     1  UNL1        0.0000
     47 H           4.8561   -0.7261    9.2614 H       1  UNL1        0.0000
     48 H           4.9386   -0.9954   10.9876 H       1  UNL1        0.0000
     49 H           6.4104   -0.9690   10.0287 H       1  UNL1        0.0000
     50 C           6.1286    2.0673    8.7176 C.3     1  UNL1        0.0000
     51 H           6.4862    3.0928    8.7609 H       1  UNL1        0.0000
     52 H           5.3028    2.0376    8.0128 H       1  UNL1        0.0000
     53 H           6.9278    1.4649    8.2983 H       1  UNL1        0.0000
     54 C          -0.3520    2.7734   12.2843 C.3     1  UNL1        0.0000
     55 H          -0.0438    2.5611   11.2638 H       1  UNL1        0.0000
     56 H          -0.7368    3.7894   12.3083 H       1  UNL1        0.0000
     57 H          -1.1858    2.1153   12.5089 H       1  UNL1        0.0000
     58 C           7.0503    3.8362   15.5019 C.3     1  UNL1        0.0000
     59 H           6.3208    3.8271   16.3061 H       1  UNL1        0.0000
     60 H           8.0234    3.9883   15.9562 H       1  UNL1        0.0000
     61 H           7.0564    2.8555   15.0300 H       1  UNL1        0.0000
@<TRIPOS>BOND
     1    52    50    1
     2    53    50    1
     3    50    51    1
     4    50     3    1
     5    47    46    1
     6    13    11    1
     7    45    43    1
     8    44    43    1
     9    43    11    1
    10    43     9    1
    11    49    46    1
    12    46     3    1
    13    46    48    1
    14    11    12    1
    15    11     8    1
    16    28    26    1
    17     3     8    1
    18     3    14    1
    19    30    29    1
    20    16    14    1
    21    55    54    1
    22     9    26    1
    23     9     4    1
    24    26    29    1
    25    26    27    1
    26     5     4    1
    27     6     4    1
    28    31    29    1
    29    29    10    1
    30    14    17    1
    31    14    15    1
    32     4    40    1
    33    54    56    1
    34    54    57    1
    35    54     2    1
    36    33    32    1
    37    34    32    1
    38    23    22    1
    39    10     1    1
    40    25    22    1
    41    32     2    1
    42    32    35    1
    43    40     7    1
    44    40    42    1
    45    40    41    1
    46     7     2    1
    47     2    36    1
    48    22     1    1
    49    22    24    1
    50     1    18    1
    51     1    58    1
    52    20    18    1
    53    61    58    1
    54    18    19    1
    55    18    21    1
    56    37    36    1
    57    36    39    1
    58    36    38    1
    59    58    60    1
    60    58    59    1
