@<TRIPOS>MOLECULE
1,2,3
 58 58 0 0 0
SMALL
GASTEIGER

@<TRIPOS>ATOM
      1 N           9.8022   10.0684   12.3440 N.pl3   1  UNL1       -0.2193
      2 N           8.0881    7.8527   11.2667 N.3     1  UNL1       -0.2264
      3 N           9.0550    5.1989   12.2951 N.3     1  UNL1       -0.3071
      4 C           9.2145   12.2406   11.3465 C.3     1  UNL1       -0.0249
      5 H           8.2291   12.7009   11.3931 H       1  UNL1        0.0290
      6 H           9.6638   12.5074   10.3902 H       1  UNL1        0.0290
      7 H           9.8292   12.6423   12.1486 H       1  UNL1        0.0290
      8 C           9.1062   10.7321   11.4451 C.2     1  UNL1        0.0261
      9 C           8.2369   10.1399   10.5245 C.2     1  UNL1       -0.0422
     10 H           7.8243   10.8293    9.8005 H       1  UNL1        0.0607
     11 C           7.7099    8.8434   10.4771 C.3     1  UNL1        0.0764
     12 C           6.5857    8.6500    9.4814 C.3     1  UNL1       -0.0396
     13 H           6.7539    7.7678    8.8649 H       1  UNL1        0.0252
     14 H           6.4951    9.5121    8.8278 H       1  UNL1        0.0252
     15 H           5.6367    8.5162   10.0021 H       1  UNL1        0.0252
     16 C           7.2913    6.6393   11.2195 C.3     1  UNL1        0.0277
     17 H           7.3834    6.1356   10.2451 H       1  UNL1        0.0454
     18 H           6.2244    6.8726   11.3569 H       1  UNL1        0.0454
     19 C           7.6625    5.6566   12.3328 C.3     1  UNL1        0.0125
     20 H           7.5012    6.1531   13.2958 H       1  UNL1        0.0439
     21 H           6.9741    4.7945   12.2701 H       1  UNL1        0.0439
     22 C           9.3142    4.3868   13.4821 C.3     1  UNL1       -0.0130
     23 H           9.1347    4.9719   14.3819 H       1  UNL1        0.0391
     24 H          10.3549    4.0681   13.4842 H       1  UNL1        0.0391
     25 H           8.6708    3.4947   13.5071 H       1  UNL1        0.0391
     26 C           9.3017    4.3757   11.1121 C.3     1  UNL1       -0.0130
     27 H          10.3133    3.9747   11.1604 H       1  UNL1        0.0391
     28 H           9.2195    4.9744   10.2081 H       1  UNL1        0.0391
     29 H           8.5955    3.5337   11.0530 H       1  UNL1        0.0391
     30 C          10.4077   10.7412   13.4260 C.ar    1  UNL1        0.0601
     31 C           9.6144   11.0951   14.5354 C.ar    1  UNL1       -0.0216
     32 C          10.2327   11.6153   15.6607 C.ar    1  UNL1       -0.0565
     33 H           9.6444   11.8667   16.5291 H       1  UNL1        0.0621
     34 C          11.5998   11.8247   15.6933 C.ar    1  UNL1       -0.0611
     35 H          12.0632   12.2325   16.5794 H       1  UNL1        0.0618
     36 C          12.3659   11.5235   14.5850 C.ar    1  UNL1       -0.0565
     37 H          13.4281   11.7158   14.6083 H       1  UNL1        0.0621
     38 C          11.7906   10.9818   13.4442 C.ar    1  UNL1       -0.0216
     39 C           8.1179   10.8662   14.4975 C.3     1  UNL1       -0.0197
     40 H           7.7830   10.9745   13.4612 H       1  UNL1        0.0344
     41 C           7.8000    9.4335   14.9378 C.3     1  UNL1       -0.0586
     42 H           8.2023    9.2447   15.9316 H       1  UNL1        0.0235
     43 H           8.2411    8.7232   14.2345 H       1  UNL1        0.0235
     44 H           6.7226    9.2783   14.9607 H       1  UNL1        0.0235
     45 C           7.3345   11.8696   15.3442 C.3     1  UNL1       -0.0586
     46 H           6.2730   11.7901   15.1176 H       1  UNL1        0.0235
     47 H           7.6558   12.8869   15.1318 H       1  UNL1        0.0235
     48 H           7.4628   11.6768   16.4066 H       1  UNL1        0.0235
     49 C          12.6474   10.6938   12.2304 C.3     1  UNL1       -0.0197
     50 H          12.0246   10.2065   11.4673 H       1  UNL1        0.0344
     51 C          13.1861   11.9999   11.6381 C.3     1  UNL1       -0.0586
     52 H          12.3680   12.6639   11.3691 H       1  UNL1        0.0235
     53 H          13.7706   11.7940   10.7437 H       1  UNL1        0.0235
     54 H          13.8231   12.5153   12.3534 H       1  UNL1        0.0235
     55 C          13.7991    9.7456   12.5729 C.3     1  UNL1       -0.0586
     56 H          14.4889   10.2077   13.2758 H       1  UNL1        0.0235
     57 H          14.3548    9.4936   11.6713 H       1  UNL1        0.0235
     58 H          13.4095    8.8282   13.0170 H       1  UNL1        0.0235
@<TRIPOS>BOND
     1    14    12    1
     2    13    12    1
     3    12    15    1
     4    12    11    1
     5    10     9    1
     6    28    26    1
     7    17    16    1
     8     6     4    1
     9    11     9    1
    10    11     2    1
    11     9     8    2
    12    53    51    1
    13    29    26    1
    14    26    27    1
    15    26     3    1
    16    16     2    1
    17    16    18    1
    18    16    19    1
    19     4     5    1
    20     4     8    1
    21     4     7    1
    22    52    51    1
    23     8     1    1
    24    50    49    1
    25    51    49    1
    26    51    54    1
    27    57    55    1
    28    49    55    1
    29    49    38    1
    30    21    19    1
    31     3    19    1
    32     3    22    1
    33    19    20    1
    34     1    30    1
    35    55    58    1
    36    55    56    1
    37    30    38   ar
    38    30    31   ar
    39    38    36   ar
    40    40    39    1
    41    22    24    1
    42    22    25    1
    43    22    23    1
    44    43    41    1
    45    39    31    1
    46    39    41    1
    47    39    45    1
    48    31    32   ar
    49    36    37    1
    50    36    34   ar
    51    41    44    1
    52    41    42    1
    53    46    45    1
    54    47    45    1
    55    45    48    1
    56    32    34   ar
    57    32    33    1
    58    34    35    1
