@<TRIPOS>MOLECULE
1,2
 65 66 0 0 0
SMALL
GASTEIGER

@<TRIPOS>ATOM
      1 N           4.0005    2.8202    2.1338 N.pl3   1  UNL1       -0.2193
      2 N           4.6427    5.7165    2.6131 N.3     1  UNL1       -0.2264
      3 N           4.6109    6.3423    5.5584 N.3     1  UNL1       -0.3011
      4 C           3.7834    2.3235   -0.2672 C.3     1  UNL1       -0.0249
      5 H           3.8502    1.2883    0.0589 H       1  UNL1        0.0290
      6 H           4.5466    2.5059   -1.0215 H       1  UNL1        0.0290
      7 H           2.8102    2.4851   -0.7300 H       1  UNL1        0.0290
      8 C           3.9459    3.2760    0.9003 C.2     1  UNL1        0.0261
      9 C           4.0214    4.6284    0.5542 C.2     1  UNL1       -0.0422
     10 H           3.8611    4.8238   -0.4973 H       1  UNL1        0.0607
     11 C           4.4059    5.7410    1.3123 C.3     1  UNL1        0.0764
     12 C           4.6159    7.0107    0.5141 C.3     1  UNL1       -0.0396
     13 H           4.0973    7.8523    0.9718 H       1  UNL1        0.0252
     14 H           4.2494    6.8943   -0.5012 H       1  UNL1        0.0252
     15 H           5.6769    7.2588    0.4669 H       1  UNL1        0.0252
     16 C           5.2389    6.9084    3.1890 C.3     1  UNL1        0.0277
     17 H           4.5475    7.7643    3.1457 H       1  UNL1        0.0454
     18 H           6.1377    7.1991    2.6238 H       1  UNL1        0.0454
     19 C           5.6937    6.7030    4.6372 C.3     1  UNL1        0.0130
     20 H           6.4203    5.8828    4.6546 H       1  UNL1        0.0440
     21 H           6.2134    7.6214    4.9472 H       1  UNL1        0.0440
     22 C           5.1378    5.9369    6.8668 C.3     1  UNL1       -0.0011
     23 H           5.8900    5.1591    6.7174 H       1  UNL1        0.0426
     24 H           4.3089    5.4970    7.4288 H       1  UNL1        0.0426
     25 C           3.6263    7.4127    5.7617 C.3     1  UNL1       -0.0011
     26 H           2.7983    6.9793    6.3323 H       1  UNL1        0.0426
     27 H           3.2308    7.7239    4.7943 H       1  UNL1        0.0426
     28 C           4.2203    1.4496    2.3848 C.ar    1  UNL1        0.0601
     29 C           5.5351    0.9481    2.3151 C.ar    1  UNL1       -0.0216
     30 C           5.7741   -0.3589    2.7072 C.ar    1  UNL1       -0.0565
     31 H           6.7784   -0.7515    2.6850 H       1  UNL1        0.0621
     32 C           4.7422   -1.1797    3.1260 C.ar    1  UNL1       -0.0611
     33 H           4.9483   -2.1964    3.4263 H       1  UNL1        0.0618
     34 C           3.4482   -0.6989    3.1444 C.ar    1  UNL1       -0.0565
     35 H           2.6450   -1.3545    3.4456 H       1  UNL1        0.0621
     36 C           3.1667    0.6099    2.7787 C.ar    1  UNL1       -0.0216
     37 C           6.6624    1.8480    1.8538 C.3     1  UNL1       -0.0197
     38 H           6.2532    2.5646    1.1348 H       1  UNL1        0.0344
     39 C           7.2086    2.6468    3.0417 C.3     1  UNL1       -0.0586
     40 H           6.4278    3.2991    3.4404 H       1  UNL1        0.0235
     41 H           8.0493    3.2621    2.7254 H       1  UNL1        0.0235
     42 H           7.5437    1.9734    3.8286 H       1  UNL1        0.0235
     43 C           7.7919    1.0885    1.1578 C.3     1  UNL1       -0.0586
     44 H           8.3763    0.5087    1.8682 H       1  UNL1        0.0235
     45 H           8.4633    1.7942    0.6724 H       1  UNL1        0.0235
     46 H           7.3944    0.4163    0.4006 H       1  UNL1        0.0235
     47 C           1.7353    1.1011    2.7720 C.3     1  UNL1       -0.0197
     48 H           1.7323    2.1733    2.5307 H       1  UNL1        0.0344
     49 C           0.9285    0.3706    1.6940 C.3     1  UNL1       -0.0586
     50 H           1.3792    0.5151    0.7150 H       1  UNL1        0.0235
     51 H          -0.0902    0.7520    1.6639 H       1  UNL1        0.0235
     52 H           0.8894   -0.6972    1.8975 H       1  UNL1        0.0235
     53 C           1.0784    0.9258    4.1432 C.3     1  UNL1       -0.0586
     54 H           0.9941   -0.1268    4.4041 H       1  UNL1        0.0235
     55 H           0.0766    1.3518    4.1332 H       1  UNL1        0.0235
     56 H           1.6703    1.4296    4.9087 H       1  UNL1        0.0235
     57 C           5.7359    7.0842    7.6885 C.3     1  UNL1       -0.0402
     58 H           6.0625    6.6924    8.6531 H       1  UNL1        0.0278
     59 H           6.6141    7.4931    7.1850 H       1  UNL1        0.0278
     60 C           4.1602    8.6257    6.5308 C.3     1  UNL1       -0.0402
     61 H           3.3508    9.3463    6.6594 H       1  UNL1        0.0278
     62 H           4.9518    9.1188    5.9631 H       1  UNL1        0.0278
     63 C           4.6961    8.1824    7.8886 C.3     1  UNL1       -0.0507
     64 H           5.1327    9.0290    8.4222 H       1  UNL1        0.0266
     65 H           3.8724    7.7933    8.4919 H       1  UNL1        0.0266
@<TRIPOS>BOND
     1     6     4    1
     2     7     4    1
     3    14    12    1
     4    10     9    1
     5     4     5    1
     6     4     8    1
     7    46    43    1
     8    15    12    1
     9    12    13    1
    10    12    11    1
    11     9     8    2
    12     9    11    1
    13    45    43    1
    14    50    49    1
    15     8     1    1
    16    38    37    1
    17    43    37    1
    18    43    44    1
    19    11     2    1
    20    51    49    1
    21    49    52    1
    22    49    47    1
    23    37    29    1
    24    37    39    1
    25     1    28    1
    26    29    28   ar
    27    29    30   ar
    28    28    36   ar
    29    48    47    1
    30     2    16    1
    31    18    16    1
    32    31    30    1
    33    30    32   ar
    34    41    39    1
    35    47    36    1
    36    47    53    1
    37    36    34   ar
    38    39    40    1
    39    39    42    1
    40    32    34   ar
    41    32    33    1
    42    34    35    1
    43    17    16    1
    44    16    19    1
    45    55    53    1
    46    53    54    1
    47    53    56    1
    48    19    20    1
    49    19    21    1
    50    19     3    1
    51    27    25    1
    52     3    25    1
    53     3    22    1
    54    25    26    1
    55    25    60    1
    56    62    60    1
    57    60    61    1
    58    60    63    1
    59    23    22    1
    60    22    24    1
    61    22    57    1
    62    59    57    1
    63    57    63    1
    64    57    58    1
    65    63    64    1
    66    63    65    1
