@<TRIPOS>MOLECULE
4,5,6
 86 91 0 0 0
SMALL
GASTEIGER

@<TRIPOS>ATOM
      1 SI          3.0162    8.7646    0.5807 Si      1  UNL1        0.0000
      2 SI          5.3625    9.4472    2.5974 Si      1  UNL1        0.0000
      3 SI          4.3900    6.4508    2.2539 Si      1  UNL1        0.0000
      4 N           1.7668    8.5158    1.7188 N.3     1  UNL1        0.0000
      5 N           4.0606   10.0317    3.5362 N.3     1  UNL1        0.0000
      6 N           3.6673    6.7661    3.7694 N.3     1  UNL1        0.0000
      7 C           4.6467    8.1432    1.3827 C.3     1  UNL1        0.0000
      8 H           5.3746    7.9985    0.5844 H       1  UNL1        0.0000
      9 C           2.7487    7.9103   -1.1202 C.3     1  UNL1        0.0000
     10 H           2.6276    6.8383   -1.0293 H       1  UNL1        0.0000
     11 H           3.5851    8.0903   -1.7860 H       1  UNL1        0.0000
     12 H           1.8599    8.3027   -1.6030 H       1  UNL1        0.0000
     13 C           3.1084   10.6322    0.0934 C.3     1  UNL1        0.0000
     14 H           2.1942   10.9576   -0.3963 H       1  UNL1        0.0000
     15 H           3.9248   10.8217   -0.5951 H       1  UNL1        0.0000
     16 H           3.2560   11.2598    0.9669 H       1  UNL1        0.0000
     17 C           6.3343   10.7933    1.6288 C.3     1  UNL1        0.0000
     18 H           5.7027   11.3477    0.9465 H       1  UNL1        0.0000
     19 H           7.1391   10.3560    1.0488 H       1  UNL1        0.0000
     20 H           6.7798   11.5039    2.3169 H       1  UNL1        0.0000
     21 C           6.7261    8.7021    3.7462 C.3     1  UNL1        0.0000
     22 H           7.1441    9.4592    4.4046 H       1  UNL1        0.0000
     23 H           7.5477    8.2902    3.1702 H       1  UNL1        0.0000
     24 H           6.3248    7.9087    4.3691 H       1  UNL1        0.0000
     25 C           6.0523    5.4885    2.3286 C.3     1  UNL1        0.0000
     26 H           6.7995    6.0005    2.9215 H       1  UNL1        0.0000
     27 H           6.4654    5.3407    1.3372 H       1  UNL1        0.0000
     28 H           5.8999    4.5073    2.7658 H       1  UNL1        0.0000
     29 C           3.2717    5.2597    1.2220 C.3     1  UNL1        0.0000
     30 H           3.1660    4.2954    1.7123 H       1  UNL1        0.0000
     31 H           3.6913    5.0743    0.2391 H       1  UNL1        0.0000
     32 H           2.2765    5.6720    1.0875 H       1  UNL1        0.0000
     33 C           0.4818    7.9661    1.3813 C.3     1  UNL1        0.0000
     34 H           0.5695    7.2147    0.5735 H       1  UNL1        0.0000
     35 C          -0.5806    9.0186    0.9419 C.3     1  UNL1        0.0000
     36 H          -0.3016    9.9825    1.3682 H       1  UNL1        0.0000
     37 H          -0.6108    9.1232   -0.1412 H       1  UNL1        0.0000
     38 C          -1.9234    8.5529    1.5254 C.3     1  UNL1        0.0000
     39 H          -2.5530    9.3831    1.8484 H       1  UNL1        0.0000
     40 H          -2.4893    7.9754    0.7887 H       1  UNL1        0.0000
     41 C          -1.5272    7.6562    2.6616 C.ar    1  UNL1        0.0000
     42 C          -2.3074    7.1548    3.6863 C.ar    1  UNL1        0.0000
     43 H          -3.3506    7.4238    3.7683 H       1  UNL1        0.0000
     44 C          -1.7275    6.2965    4.6101 C.ar    1  UNL1        0.0000
     45 H          -2.3260    5.9003    5.4174 H       1  UNL1        0.0000
     46 C          -0.3931    5.9358    4.5037 C.ar    1  UNL1        0.0000
     47 H           0.0284    5.2511    5.2262 H       1  UNL1        0.0000
     48 C           0.4012    6.4423    3.4794 C.ar    1  UNL1        0.0000
     49 H           1.4418    6.1407    3.3567 H       1  UNL1        0.0000
     50 C          -0.1826    7.3087    2.5677 C.ar    1  UNL1        0.0000
     51 C           3.8500   11.4241    3.8270 C.3     1  UNL1        0.0000
     52 H           4.1686   12.0607    2.9796 H       1  UNL1        0.0000
     53 C           4.5731   11.9361    5.1092 C.3     1  UNL1        0.0000
     54 H           4.7510   11.0822    5.7635 H       1  UNL1        0.0000
     55 H           5.5352   12.3853    4.8692 H       1  UNL1        0.0000
     56 C           3.6138   12.9281    5.7853 C.3     1  UNL1        0.0000
     57 H           3.8479   13.9565    5.4955 H       1  UNL1        0.0000
     58 H           3.6523   12.8750    6.8742 H       1  UNL1        0.0000
     59 C           2.2675   12.5521    5.2396 C.ar    1  UNL1        0.0000
     60 C           1.0140   12.9392    5.6744 C.ar    1  UNL1        0.0000
     61 H           0.9022   13.5760    6.5400 H       1  UNL1        0.0000
     62 C          -0.1022   12.4961    4.9784 C.ar    1  UNL1        0.0000
     63 H          -1.0874   12.7896    5.3101 H       1  UNL1        0.0000
     64 C           0.0336   11.6895    3.8590 C.ar    1  UNL1        0.0000
     65 H          -0.8514   11.3735    3.3246 H       1  UNL1        0.0000
     66 C           1.2917   11.2891    3.4192 C.ar    1  UNL1        0.0000
     67 H           1.4214   10.6873    2.5193 H       1  UNL1        0.0000
     68 C           2.4010   11.7264    4.1270 C.ar    1  UNL1        0.0000
     69 C           4.0852    6.1412    4.9948 C.3     1  UNL1        0.0000
     70 H           5.1756    5.9514    4.9935 H       1  UNL1        0.0000
     71 C           3.3670    4.7961    5.3158 C.3     1  UNL1        0.0000
     72 H           2.4009    4.7975    4.8100 H       1  UNL1        0.0000
     73 H           3.9389    3.9436    4.9534 H       1  UNL1        0.0000
     74 C           3.1638    4.7655    6.8383 C.3     1  UNL1        0.0000
     75 H           2.2271    4.2877    7.1289 H       1  UNL1        0.0000
     76 H           3.9781    4.2247    7.3292 H       1  UNL1        0.0000
     77 C           3.2186    6.2121    7.2337 C.ar    1  UNL1        0.0000
     78 C           2.8516    6.8019    8.4284 C.ar    1  UNL1        0.0000
     79 H           2.4302    6.2115    9.2292 H       1  UNL1        0.0000
     80 C           3.0340    8.1691    8.5834 C.ar    1  UNL1        0.0000
     81 H           2.7482    8.6424    9.5113 H       1  UNL1        0.0000
     82 C           3.5855    8.9313    7.5651 C.ar    1  UNL1        0.0000
     83 H           3.7331    9.9911    7.7187 H       1  UNL1        0.0000
     84 C           3.9515    8.3462    6.3567 C.ar    1  UNL1        0.0000
     85 H           4.4211    8.9216    5.5586 H       1  UNL1        0.0000
     86 C           3.7551    6.9821    6.2055 C.ar    1  UNL1        0.0000
@<TRIPOS>BOND
     1    11     9    1
     2    12     9    1
     3     9    10    1
     4     9     1    1
     5    15    13    1
     6    14    13    1
     7    37    35    1
     8    13     1    1
     9    13    16    1
    10    31    29    1
    11    34    33    1
    12     1     7    1
    13     1     4    1
    14     8     7    1
    15    40    38    1
    16    35    36    1
    17    35    33    1
    18    35    38    1
    19    18    17    1
    20    19    17    1
    21    32    29    1
    22    29    30    1
    23    29     3    1
    24    27    25    1
    25    33     4    1
    26    33    50    1
    27     7     3    1
    28     7     2    1
    29    38    39    1
    30    38    41    1
    31    17    20    1
    32    17     2    1
    33     3    25    1
    34     3     6    1
    35    25    28    1
    36    25    26    1
    37    67    66    1
    38    50    41   ar
    39    50    48   ar
    40     2     5    1
    41     2    21    1
    42    41    42   ar
    43    52    51    1
    44    23    21    1
    45    65    64    1
    46    49    48    1
    47    66    64   ar
    48    66    68   ar
    49    48    46   ar
    50     5    51    1
    51    42    43    1
    52    42    44   ar
    53    21    24    1
    54    21    22    1
    55     6    69    1
    56    51    68    1
    57    51    53    1
    58    64    62   ar
    59    68    59   ar
    60    46    44   ar
    61    46    47    1
    62    44    45    1
    63    72    71    1
    64    55    53    1
    65    73    71    1
    66    62    63    1
    67    62    60   ar
    68    70    69    1
    69    69    71    1
    70    69    86    1
    71    53    54    1
    72    53    56    1
    73    59    60   ar
    74    59    56    1
    75    71    74    1
    76    57    56    1
    77    85    84    1
    78    60    61    1
    79    56    58    1
    80    86    84   ar
    81    86    77   ar
    82    84    82   ar
    83    74    75    1
    84    74    77    1
    85    74    76    1
    86    77    78   ar
    87    82    83    1
    88    82    80   ar
    89    78    80   ar
    90    78    79    1
    91    80    81    1
