@<TRIPOS>MOLECULE
4,5,6
 83 85 0 0 0
SMALL
GASTEIGER

@<TRIPOS>ATOM
      1 SI         11.5037    9.8149   10.2897 Si      1  UNL1        0.0000
      2 SI          8.3813    9.4243   10.5881 Si      1  UNL1        0.0000
      3 SI         10.3805    7.2939   11.8166 Si      1  UNL1        0.0000
      4 N          11.1233   11.0620   11.3976 N.3     1  UNL1        0.0000
      5 N           8.2009    9.7500   12.2589 N.3     1  UNL1        0.0000
      6 N          11.0510    8.2039   13.1070 N.3     1  UNL1        0.0000
      7 C          10.0742    8.5605   10.4233 C.3     1  UNL1        0.0000
      8 H          10.0539    8.0032    9.4880 H       1  UNL1        0.0000
      9 C          13.2231    9.0341   10.7009 C.3     1  UNL1        0.0000
     10 H          13.4916    8.2492   10.0027 H       1  UNL1        0.0000
     11 H          13.2124    8.6041   11.6994 H       1  UNL1        0.0000
     12 H          14.0135    9.7802   10.6611 H       1  UNL1        0.0000
     13 C          11.7064   10.3585    8.4521 C.3     1  UNL1        0.0000
     14 H          11.9846    9.5167    7.8271 H       1  UNL1        0.0000
     15 H          12.4889   11.1046    8.3545 H       1  UNL1        0.0000
     16 H          10.7949   10.7799    8.0452 H       1  UNL1        0.0000
     17 C           8.2588   11.0198    9.5028 C.3     1  UNL1        0.0000
     18 H           8.2411   10.7922    8.4420 H       1  UNL1        0.0000
     19 H           9.0967   11.6836    9.6888 H       1  UNL1        0.0000
     20 H           7.3461   11.5664    9.7289 H       1  UNL1        0.0000
     21 C           6.9846    8.3190    9.8542 C.3     1  UNL1        0.0000
     22 H           6.0392    8.8519    9.8440 H       1  UNL1        0.0000
     23 H           6.8396    7.4071   10.4197 H       1  UNL1        0.0000
     24 H           7.2072    8.0393    8.8305 H       1  UNL1        0.0000
     25 C          11.5483    5.8898   11.1996 C.3     1  UNL1        0.0000
     26 H          11.2663    5.5529   10.2083 H       1  UNL1        0.0000
     27 H          11.4965    5.0296   11.8591 H       1  UNL1        0.0000
     28 H          12.5831    6.2078   11.1548 H       1  UNL1        0.0000
     29 C           8.7701    6.3317   12.2704 C.3     1  UNL1        0.0000
     30 H           8.4009    5.7462   11.4350 H       1  UNL1        0.0000
     31 H           7.9868    7.0204   12.5715 H       1  UNL1        0.0000
     32 H           8.9453    5.6453   13.0948 H       1  UNL1        0.0000
     33 C          11.9681   12.2431   11.4470 C.3     1  UNL1        0.0000
     34 H          12.9633   12.0300   11.0091 H       1  UNL1        0.0000
     35 C          11.3760   13.3848   10.6061 C.3     1  UNL1        0.0000
     36 H          12.0451   14.2427   10.5888 H       1  UNL1        0.0000
     37 H          10.4020   13.6873   10.9830 H       1  UNL1        0.0000
     38 H          11.2518   13.0256    9.5879 H       1  UNL1        0.0000
     39 C          12.2364   12.6102   12.8942 C.ar    1  UNL1        0.0000
     40 C          12.7446   11.5986   13.7160 C.ar    1  UNL1        0.0000
     41 H          12.9331   10.6192   13.2768 H       1  UNL1        0.0000
     42 C          13.1076   11.8724   15.0251 C.ar    1  UNL1        0.0000
     43 H          13.5520   11.1023   15.6393 H       1  UNL1        0.0000
     44 C          12.9233   13.1432   15.5487 C.ar    1  UNL1        0.0000
     45 H          13.1982   13.3538   16.5713 H       1  UNL1        0.0000
     46 C          12.4006   14.1425   14.7489 C.ar    1  UNL1        0.0000
     47 H          12.2616   15.1366   15.1485 H       1  UNL1        0.0000
     48 C          12.0740   13.8834   13.4266 C.ar    1  UNL1        0.0000
     49 H          11.7154   14.6931   12.8104 H       1  UNL1        0.0000
     50 C           6.9851   10.3671   12.7408 C.3     1  UNL1        0.0000
     51 H           6.2181   10.3600   11.9460 H       1  UNL1        0.0000
     52 C           6.4093    9.5511   13.9171 C.3     1  UNL1        0.0000
     53 H           5.3654    9.7954   14.0976 H       1  UNL1        0.0000
     54 H           6.9798    9.7448   14.8246 H       1  UNL1        0.0000
     55 H           6.4728    8.4933   13.6698 H       1  UNL1        0.0000
     56 C           7.1695   11.8250   13.1439 C.ar    1  UNL1        0.0000
     57 C           8.3198   12.5243   12.7822 C.ar    1  UNL1        0.0000
     58 H           9.0783   12.0266   12.1681 H       1  UNL1        0.0000
     59 C           8.4806   13.8478   13.1675 C.ar    1  UNL1        0.0000
     60 H           9.3756   14.3845   12.8905 H       1  UNL1        0.0000
     61 C           7.5047   14.4931   13.9066 C.ar    1  UNL1        0.0000
     62 H           7.6401   15.5207   14.2094 H       1  UNL1        0.0000
     63 C           6.3475   13.8131   14.2438 C.ar    1  UNL1        0.0000
     64 H           5.5711   14.3106   14.8065 H       1  UNL1        0.0000
     65 C           6.1817   12.4941   13.8621 C.ar    1  UNL1        0.0000
     66 H           5.2671   11.9858   14.1264 H       1  UNL1        0.0000
     67 C          11.5394    7.4807   14.2590 C.3     1  UNL1        0.0000
     68 H          12.0632    6.5677   13.9257 H       1  UNL1        0.0000
     69 C          12.5555    8.3244   15.0499 C.3     1  UNL1        0.0000
     70 H          12.9164    7.7686   15.9139 H       1  UNL1        0.0000
     71 H          12.0695    9.2400   15.3916 H       1  UNL1        0.0000
     72 H          13.4064    8.5715   14.4166 H       1  UNL1        0.0000
     73 C          10.4487    7.0397   15.2209 C.ar    1  UNL1        0.0000
     74 C           9.2158    7.6784   15.2405 C.ar    1  UNL1        0.0000
     75 H           9.0317    8.4781   14.5130 H       1  UNL1        0.0000
     76 C           8.2413    7.2810   16.1421 C.ar    1  UNL1        0.0000
     77 H           7.2819    7.7770   16.1559 H       1  UNL1        0.0000
     78 C           8.4854    6.2434   17.0262 C.ar    1  UNL1        0.0000
     79 H           7.7223    5.9348   17.7254 H       1  UNL1        0.0000
     80 C           9.7094    5.5963   17.0035 C.ar    1  UNL1        0.0000
     81 H           9.9023    4.7789   17.6831 H       1  UNL1        0.0000
     82 C          10.6841    5.9941   16.1066 C.ar    1  UNL1        0.0000
     83 H          11.6363    5.4822   16.0866 H       1  UNL1        0.0000
@<TRIPOS>BOND
     1    14    13    1
     2    16    13    1
     3    15    13    1
     4    18    17    1
     5    13     1    1
     6    24    21    1
     7     8     7    1
     8    17    19    1
     9    17    20    1
    10    17     2    1
    11    38    35    1
    12    22    21    1
    13    21    23    1
    14    21     2    1
    15    10     9    1
    16    26    25    1
    17     1     7    1
    18     1     9    1
    19     1     4    1
    20     7     2    1
    21     7     3    1
    22     2     5    1
    23    36    35    1
    24    35    37    1
    25    35    33    1
    26    12     9    1
    27     9    11    1
    28    34    33    1
    29    28    25    1
    30    25     3    1
    31    25    27    1
    32     4    33    1
    33    30    29    1
    34    33    39    1
    35     3    29    1
    36     3     6    1
    37    51    50    1
    38    58    57    1
    39     5    50    1
    40    29    31    1
    41    29    32    1
    42    50    56    1
    43    50    52    1
    44    57    56   ar
    45    57    59   ar
    46    49    48    1
    47    60    59    1
    48    39    48   ar
    49    39    40   ar
    50     6    67    1
    51    56    65   ar
    52    59    61   ar
    53    41    40    1
    54    48    46   ar
    55    55    52    1
    56    40    42   ar
    57    65    66    1
    58    65    63   ar
    59    61    62    1
    60    61    63   ar
    61    52    53    1
    62    52    54    1
    63    68    67    1
    64    63    64    1
    65    67    69    1
    66    67    73    1
    67    72    69    1
    68    75    74    1
    69    46    47    1
    70    46    44   ar
    71    42    44   ar
    72    42    43    1
    73    69    71    1
    74    69    70    1
    75    73    74   ar
    76    73    82   ar
    77    74    76   ar
    78    44    45    1
    79    83    82    1
    80    82    80   ar
    81    76    77    1
    82    76    78   ar
    83    80    78   ar
    84    80    81    1
    85    78    79    1
