@<TRIPOS>MOLECULE
2,3,4
 45 46 0 0 0
SMALL
GASTEIGER

@<TRIPOS>ATOM
      1 SI          3.2390    5.0061    9.7638 Si      1  UNL1        0.0000
      2 N          -1.7703    3.1780   11.4372 N.pl3   1  UNL1        0.0000
      3 N          -0.4409    5.1914   10.5223 N.3     1  UNL1        0.0000
      4 N           1.5813    4.5837    9.9034 N.3     1  UNL1        0.0000
      5 C          -3.0423    2.4277   13.4163 C.ar    1  UNL1        0.0000
      6 H          -3.6598    3.3138   13.4434 H       1  UNL1        0.0000
      7 C          -3.2502    1.4399   14.3594 C.ar    1  UNL1        0.0000
      8 H          -4.0045    1.5899   15.1201 H       1  UNL1        0.0000
      9 C          -2.5167    0.2651   14.3441 C.ar    1  UNL1        0.0000
     10 H          -2.6848   -0.4978   15.0884 H       1  UNL1        0.0000
     11 C          -1.5780    0.0741   13.3368 C.ar    1  UNL1        0.0000
     12 H          -1.0270   -0.8563   13.2924 H       1  UNL1        0.0000
     13 C          -1.3512    1.0471   12.3877 C.ar    1  UNL1        0.0000
     14 H          -0.6746    0.8691   11.5475 H       1  UNL1        0.0000
     15 C          -2.0617    2.2768   12.4107 C.ar    1  UNL1        0.0000
     16 C          -2.4826    4.4480   11.4443 C.3     1  UNL1        0.0000
     17 H          -2.3684    4.9573   12.4194 H       1  UNL1        0.0000
     18 H          -3.5576    4.3041   11.2438 H       1  UNL1        0.0000
     19 C          -1.8643    5.3626   10.3638 C.3     1  UNL1        0.0000
     20 H          -2.1992    5.0672    9.3562 H       1  UNL1        0.0000
     21 H          -2.1832    6.4002   10.5415 H       1  UNL1        0.0000
     22 C           0.4933    5.2879    9.5985 C.3     1  UNL1        0.0000
     23 C           0.3819    6.0784    8.3543 C.ar    1  UNL1        0.0000
     24 C           0.9493    5.5902    7.1804 C.ar    1  UNL1        0.0000
     25 H           1.4512    4.6357    7.2023 H       1  UNL1        0.0000
     26 C           0.8529    6.3133    6.0070 C.ar    1  UNL1        0.0000
     27 H           1.2861    5.9219    5.0987 H       1  UNL1        0.0000
     28 C           0.2049    7.5381    5.9955 C.ar    1  UNL1        0.0000
     29 H           0.1326    8.1049    5.0789 H       1  UNL1        0.0000
     30 C          -0.3461    8.0380    7.1637 C.ar    1  UNL1        0.0000
     31 H          -0.8411    8.9982    7.1597 H       1  UNL1        0.0000
     32 C          -0.2652    7.3106    8.3375 C.ar    1  UNL1        0.0000
     33 H          -0.6803    7.7092    9.2511 H       1  UNL1        0.0000
     34 C           3.5246    6.7904    9.1260 C.3     1  UNL1        0.0000
     35 H           3.3303    6.8705    8.0613 H       1  UNL1        0.0000
     36 H           4.5472    7.1088    9.3000 H       1  UNL1        0.0000
     37 H           2.8687    7.4939    9.6299 H       1  UNL1        0.0000
     38 C           4.2045    3.7994    8.6257 C.3     1  UNL1        0.0000
     39 H           4.6311    2.9800    9.1960 H       1  UNL1        0.0000
     40 H           5.0258    4.3083    8.1314 H       1  UNL1        0.0000
     41 H           3.5697    3.3714    7.8555 H       1  UNL1        0.0000
     42 C           3.8787    4.8750   11.5670 C.3     1  UNL1        0.0000
     43 H           3.5764    5.7370   12.1561 H       1  UNL1        0.0000
     44 H           4.9603    4.8014   11.6221 H       1  UNL1        0.0000
     45 H           3.4457    3.9899   12.0346 H       1  UNL1        0.0000
@<TRIPOS>BOND
     1    29    28    1
     2    27    26    1
     3    28    26   ar
     4    28    30   ar
     5    26    24   ar
     6    31    30    1
     7    30    32   ar
     8    24    25    1
     9    24    23   ar
    10    41    38    1
    11    35    34    1
    12    40    38    1
    13    32    23   ar
    14    32    33    1
    15    23    22    1
    16    38    39    1
    17    38     1    1
    18    34    36    1
    19    34    37    1
    20    34     1    1
    21    20    19    1
    22    22     4    1
    23    22     3    1
    24     1     4    1
    25     1    42    1
    26    19     3    1
    27    19    21    1
    28    19    16    1
    29    18    16    1
    30     2    16    1
    31     2    15    1
    32    16    17    1
    33    14    13    1
    34    42    44    1
    35    42    45    1
    36    42    43    1
    37    13    15   ar
    38    13    11   ar
    39    15     5   ar
    40    12    11    1
    41    11     9   ar
    42     5     6    1
    43     5     7   ar
    44     9     7   ar
    45     9    10    1
    46     7     8    1
