@<TRIPOS>MOLECULE
2,3,4
 45 46 0 0 0
SMALL
GASTEIGER

@<TRIPOS>ATOM
      1 SI          0.4449    4.9475   14.4736 Si      1  UNL1        0.0000
      2 N           0.7934    1.5980    9.9576 N.pl3   1  UNL1        0.0000
      3 N           1.8804    2.2402   12.2130 N.3     1  UNL1        0.0000
      4 N           0.6515    3.7139   13.2934 N.3     1  UNL1        0.0000
      5 C          -0.6983    2.5669    8.3906 C.ar    1  UNL1        0.0000
      6 H          -1.3978    2.6911    9.2218 H       1  UNL1        0.0000
      7 C          -1.0434    2.9383    7.1092 C.ar    1  UNL1        0.0000
      8 H          -1.9933    3.4250    6.9294 H       1  UNL1        0.0000
      9 C          -0.1951    2.6804    6.0389 C.ar    1  UNL1        0.0000
     10 H          -0.4687    2.9781    5.0386 H       1  UNL1        0.0000
     11 C           0.9949    2.0123    6.2765 C.ar    1  UNL1        0.0000
     12 H           1.6517    1.7796    5.4488 H       1  UNL1        0.0000
     13 C           1.3616    1.6300    7.5522 C.ar    1  UNL1        0.0000
     14 H           2.2848    1.0865    7.6887 H       1  UNL1        0.0000
     15 C           0.5370    1.9197    8.6619 C.ar    1  UNL1        0.0000
     16 C           2.0543    0.9324   10.2576 C.3     1  UNL1        0.0000
     17 H           2.9031    1.4893    9.8239 H       1  UNL1        0.0000
     18 H           2.0648   -0.0966    9.8604 H       1  UNL1        0.0000
     19 C           2.2478    0.9109   11.7894 C.3     1  UNL1        0.0000
     20 H           1.6108    0.1434   12.2590 H       1  UNL1        0.0000
     21 H           3.2967    0.6743   12.0221 H       1  UNL1        0.0000
     22 C           1.3429    2.5805   13.3679 C.3     1  UNL1        0.0000
     23 C           1.4966    1.8111   14.6221 C.ar    1  UNL1        0.0000
     24 C           0.4022    1.6303   15.4626 C.ar    1  UNL1        0.0000
     25 H          -0.5526    2.0396   15.1743 H       1  UNL1        0.0000
     26 C           0.5403    0.9175   16.6388 C.ar    1  UNL1        0.0000
     27 H          -0.3160    0.7718   17.2803 H       1  UNL1        0.0000
     28 C           1.7720    0.3923   16.9952 C.ar    1  UNL1        0.0000
     29 H           1.8798   -0.1605   17.9168 H       1  UNL1        0.0000
     30 C           2.8675    0.5801   16.1686 C.ar    1  UNL1        0.0000
     31 H           3.8308    0.1795   16.4488 H       1  UNL1        0.0000
     32 C           2.7313    1.2797   14.9831 C.ar    1  UNL1        0.0000
     33 H           3.5877    1.4390   14.3445 H       1  UNL1        0.0000
     34 C           0.4582    6.5510   13.4229 C.3     1  UNL1        0.0000
     35 H           1.4148    7.0615   13.4825 H       1  UNL1        0.0000
     36 H          -0.3010    7.2564   13.7450 H       1  UNL1        0.0000
     37 H           0.2768    6.2990   12.3765 H       1  UNL1        0.0000
     38 C          -1.1898    4.8150   15.4710 C.3     1  UNL1        0.0000
     39 H          -1.9647    4.3124   14.8994 H       1  UNL1        0.0000
     40 H          -1.5613    5.7981   15.7428 H       1  UNL1        0.0000
     41 H          -1.0497    4.2568   16.3920 H       1  UNL1        0.0000
     42 C           1.8959    4.9911   15.7248 C.3     1  UNL1        0.0000
     43 H           1.8733    4.1303   16.3861 H       1  UNL1        0.0000
     44 H           1.8578    5.8822   16.3425 H       1  UNL1        0.0000
     45 H           2.8529    4.9837   15.2115 H       1  UNL1        0.0000
@<TRIPOS>BOND
     1    10     9    1
     2    12    11    1
     3     9    11   ar
     4     9     7   ar
     5    11    13   ar
     6     8     7    1
     7     7     5   ar
     8    13    14    1
     9    13    15   ar
    10     5    15   ar
    11     5     6    1
    12    15     2    1
    13    17    16    1
    14    18    16    1
    15     2    16    1
    16    16    19    1
    17    19    21    1
    18    19     3    1
    19    19    20    1
    20     3    22    1
    21    37    34    1
    22     4    22    1
    23     4     1    1
    24    22    23    1
    25    34    35    1
    26    34    36    1
    27    34     1    1
    28    33    32    1
    29     1    38    1
    30     1    42    1
    31    23    32   ar
    32    23    24   ar
    33    39    38    1
    34    32    30   ar
    35    25    24    1
    36    45    42    1
    37    24    26   ar
    38    38    40    1
    39    38    41    1
    40    42    44    1
    41    42    43    1
    42    30    31    1
    43    30    28   ar
    44    26    28   ar
    45    26    27    1
    46    28    29    1
