@<TRIPOS>MOLECULE
3,4,5
 61 63 0 0 0
SMALL
GASTEIGER

@<TRIPOS>ATOM
      1 O           8.8343   11.3162    8.7558 O.3     1  UNL1       -0.3508
      2 O           5.9148   10.3767   16.1119 O.3     1  UNL1       -0.3508
      3 N           8.6564   10.2980   10.7567 N.3     1  UNL1       -0.1971
      4 N           6.6417   11.3061   12.2082 N.ar    1  UNL1       -0.2551
      5 N           7.4670   10.3252   14.4913 N.3     1  UNL1       -0.1971
      6 C           8.9250    9.2266    9.8067 C.3     1  UNL1        0.0542
      7 H           9.7545    8.6106   10.1649 H       1  UNL1        0.0503
      8 C           9.2958    9.9944    8.5226 C.3     1  UNL1        0.0674
      9 H          10.3804   10.0244    8.3605 H       1  UNL1        0.0577
     10 H           8.8148    9.6089    7.6235 H       1  UNL1        0.0577
     11 C           8.5253   11.3890   10.0793 C.3     1  UNL1        0.1912
     12 C           8.0021   12.6788   10.6382 C.3     1  UNL1        0.0553
     13 C           6.7022   12.3550   11.3396 C.ar    1  UNL1        0.0515
     14 C           5.4880   13.0077   11.3224 C.ar    1  UNL1       -0.0380
     15 H           5.2211   13.8736   10.7474 H       1  UNL1        0.0636
     16 C           4.6504   12.3271   12.2305 C.ar    1  UNL1       -0.0380
     17 H           3.6325   12.5786   12.4575 H       1  UNL1        0.0636
     18 C           5.3986   11.2936   12.7515 C.ar    1  UNL1        0.0515
     19 C           5.0804   10.2584   13.8025 C.3     1  UNL1        0.0553
     20 C           6.2133   10.3004   14.7907 C.3     1  UNL1        0.1912
     21 C           7.1436   10.4269   16.8190 C.3     1  UNL1        0.0674
     22 H           7.2334    9.5231   17.4304 H       1  UNL1        0.0577
     23 H           7.1290   11.2983   17.4770 H       1  UNL1        0.0577
     24 C           8.2269   10.4995   15.7205 C.3     1  UNL1        0.0542
     25 H           8.9400    9.6740   15.8163 H       1  UNL1        0.0503
     26 C           9.0180   11.8218   15.6763 C.3     1  UNL1       -0.0275
     27 H           9.6912   11.7360   14.8136 H       1  UNL1        0.0312
     28 C           8.1060   13.0262   15.4498 C.3     1  UNL1       -0.0611
     29 H           7.4896   12.8766   14.5639 H       1  UNL1        0.0233
     30 H           8.7036   13.9238   15.3079 H       1  UNL1        0.0233
     31 H           7.4499   13.1899   16.3016 H       1  UNL1        0.0233
     32 C           9.8684   11.9952   16.9321 C.3     1  UNL1       -0.0611
     33 H           9.2457   12.0971   17.8177 H       1  UNL1        0.0233
     34 H          10.4833   12.8879   16.8461 H       1  UNL1        0.0233
     35 H          10.5245   11.1394   17.0744 H       1  UNL1        0.0233
     36 C           7.6745    8.3324    9.6579 C.3     1  UNL1       -0.0275
     37 H           7.4420    7.9696   10.6629 H       1  UNL1        0.0312
     38 C           6.4568    9.1095    9.1634 C.3     1  UNL1       -0.0611
     39 H           6.2266    9.9236    9.8480 H       1  UNL1        0.0233
     40 H           5.5949    8.4479    9.1204 H       1  UNL1        0.0233
     41 H           6.6161    9.5219    8.1697 H       1  UNL1        0.0233
     42 C           7.9761    7.1315    8.7645 C.3     1  UNL1       -0.0611
     43 H           7.1169    6.4662    8.7361 H       1  UNL1        0.0233
     44 H           8.8282    6.5741    9.1470 H       1  UNL1        0.0233
     45 H           8.1980    7.4400    7.7452 H       1  UNL1        0.0233
     46 C           9.0111   13.2280   11.6670 C.3     1  UNL1       -0.0502
     47 H           9.1622   12.4863   12.4599 H       1  UNL1        0.0240
     48 H           8.6198   14.1424   12.1079 H       1  UNL1        0.0240
     49 H           9.9658   13.4444   11.1901 H       1  UNL1        0.0240
     50 C           7.7968   13.6996    9.5195 C.3     1  UNL1       -0.0502
     51 H           8.7315   13.8747    8.9924 H       1  UNL1        0.0240
     52 H           7.4453   14.6386    9.9384 H       1  UNL1        0.0240
     53 H           7.0623   13.3352    8.8068 H       1  UNL1        0.0240
     54 C           3.7566   10.5665   14.5026 C.3     1  UNL1       -0.0502
     55 H           2.9459   10.5265   13.7804 H       1  UNL1        0.0240
     56 H           3.7821   11.5576   14.9472 H       1  UNL1        0.0240
     57 H           3.5673    9.8397   15.2883 H       1  UNL1        0.0240
     58 C           5.0159    8.8593   13.1617 C.3     1  UNL1       -0.0502
     59 H           4.2305    8.8449   12.4102 H       1  UNL1        0.0240
     60 H           4.7986    8.1065   13.9165 H       1  UNL1        0.0240
     61 H           5.9723    8.6355   12.6890 H       1  UNL1        0.0240
@<TRIPOS>BOND
     1    10     8    1
     2    45    42    1
     3    41    38    1
     4     9     8    1
     5     8     1    1
     6     8     6    1
     7    43    42    1
     8     1    11    1
     9    42    44    1
    10    42    36    1
    11    53    50    1
    12    51    50    1
    13    40    38    1
    14    38    36    1
    15    38    39    1
    16    50    52    1
    17    50    12    1
    18    36     6    1
    19    36    37    1
    20     6     7    1
    21     6     3    1
    22    11    12    1
    23    11     3    1
    24    12    13    1
    25    12    46    1
    26    15    14    1
    27    49    46    1
    28    14    13   ar
    29    14    16   ar
    30    13     4   ar
    31    46    48    1
    32    46    47    1
    33     4    18   ar
    34    16    17    1
    35    16    18   ar
    36    59    58    1
    37    61    58    1
    38    18    19    1
    39    58    19    1
    40    58    60    1
    41    55    54    1
    42    19    54    1
    43    19    20    1
    44     5    20    1
    45     5    24    1
    46    54    56    1
    47    54    57    1
    48    29    28    1
    49    20     2    1
    50    27    26    1
    51    30    28    1
    52    28    26    1
    53    28    31    1
    54    26    24    1
    55    26    32    1
    56    24    25    1
    57    24    21    1
    58     2    21    1
    59    21    22    1
    60    21    23    1
    61    34    32    1
    62    32    35    1
    63    32    33    1
