@<TRIPOS>MOLECULE
1,2,3
 43 45 0 0 0
SMALL
GASTEIGER

@<TRIPOS>ATOM
      1 N          -1.8146   11.4148   14.8546 N.pl3   1  UNL1       -0.1675
      2 N          -1.5057   14.5672   15.1900 N.pl3   1  UNL1       -0.1675
      3 N           0.8460   12.8885   14.3318 N.pl3   1  UNL1       -0.1675
      4 N          -2.1340   12.0994   13.7316 N.3     1  UNL1       -0.1558
      5 N          -1.5221   14.3927   13.8470 N.3     1  UNL1       -0.1558
      6 N           0.0658   12.7691   13.2314 N.3     1  UNL1       -0.1558
      7 C          -1.3256   13.1449   13.1459 C.3     1  UNL1        0.2366
      8 C          -3.8285   12.1485   11.9189 C.3     1  UNL1       -0.0391
      9 H          -3.0373   12.4028   11.2168 H       1  UNL1        0.0252
     10 H          -4.3852   13.0572   12.1479 H       1  UNL1        0.0252
     11 H          -4.5064   11.4294   11.4676 H       1  UNL1        0.0252
     12 C          -3.2357   11.5842   13.1566 C.3     1  UNL1        0.0848
     13 C          -3.6461   10.5205   13.9393 C.2     1  UNL1       -0.0406
     14 H          -4.4938    9.8861   13.7764 H       1  UNL1        0.0608
     15 C          -2.7222   10.4484   14.9854 C.2     1  UNL1        0.0395
     16 C          -2.6664    9.4631   16.1009 C.3     1  UNL1       -0.0237
     17 H          -1.9126    8.7025   15.8927 H       1  UNL1        0.0291
     18 H          -3.6303    8.9721   16.2128 H       1  UNL1        0.0291
     19 H          -2.4007    9.9648   17.0331 H       1  UNL1        0.0291
     20 C          -1.8302   15.6685   11.7375 C.3     1  UNL1       -0.0391
     21 H          -0.8230   15.6371   11.3219 H       1  UNL1        0.0252
     22 H          -2.2969   16.6074   11.4528 H       1  UNL1        0.0252
     23 H          -2.3916   14.8362   11.3200 H       1  UNL1        0.0252
     24 C          -1.7800   15.5533   13.2165 C.3     1  UNL1        0.0848
     25 C          -1.9501   16.5178   14.1897 C.2     1  UNL1       -0.0406
     26 H          -2.1763   17.5548   14.0438 H       1  UNL1        0.0608
     27 C          -1.7801   15.8506   15.4076 C.2     1  UNL1        0.0395
     28 C          -1.9275   16.4261   16.7737 C.3     1  UNL1       -0.0237
     29 H          -1.6313   15.6937   17.5214 H       1  UNL1        0.0291
     30 H          -2.9685   16.6985   16.9483 H       1  UNL1        0.0291
     31 H          -1.3263   17.3295   16.8758 H       1  UNL1        0.0291
     32 C           0.1651   12.0793   10.8521 C.3     1  UNL1       -0.0391
     33 H          -0.3816   11.1365   10.8538 H       1  UNL1        0.0252
     34 H           0.9350   12.0344   10.0868 H       1  UNL1        0.0252
     35 H          -0.5399   12.8761   10.6250 H       1  UNL1        0.0252
     36 C           0.7782   12.3207   12.1818 C.3     1  UNL1        0.0848
     37 C           2.0783   12.1491   12.6154 C.2     1  UNL1       -0.0406
     38 H           2.9146   11.8051   12.0414 H       1  UNL1        0.0608
     39 C           2.0730   12.5244   13.9624 C.2     1  UNL1        0.0395
     40 C           3.2336   12.5742   14.8935 C.3     1  UNL1       -0.0237
     41 H           2.8939   12.8373   15.8920 H       1  UNL1        0.0291
     42 H           3.9632   13.3075   14.5472 H       1  UNL1        0.0291
     43 H           3.7280   11.6047   14.9320 H       1  UNL1        0.0291
@<TRIPOS>BOND
     1    34    32    1
     2    35    32    1
     3    32    33    1
     4    32    36    1
     5     9     8    1
     6    23    20    1
     7    21    20    1
     8    22    20    1
     9    11     8    1
    10    20    24    1
    11     8    10    1
    12     8    12    1
    13    38    37    1
    14    36    37    1
    15    36     6    1
    16    37    39    2
    17     7     6    1
    18     7     4    1
    19     7     5    1
    20    12     4    1
    21    12    13    1
    22    24     5    1
    23    24    25    1
    24     6     3    1
    25     4     1    1
    26    14    13    1
    27     5     2    1
    28    13    15    2
    29    39     3    1
    30    39    40    1
    31    26    25    1
    32    25    27    2
    33    42    40    1
    34     1    15    1
    35    40    43    1
    36    40    41    1
    37    15    16    1
    38     2    27    1
    39    27    28    1
    40    17    16    1
    41    16    18    1
    42    16    19    1
    43    28    31    1
    44    28    30    1
    45    28    29    1
