@<TRIPOS>MOLECULE
2,3,4
 78 82 0 0 0
SMALL
GASTEIGER

@<TRIPOS>ATOM
      1 P           8.1751   13.5905    7.5438 P.3     1  UNL1        0.0536
      2 N           8.1917   18.2280    7.6050 N.pl3   1  UNL1       -0.2185
      3 N           7.2524   16.2304    7.5620 N.pl3   1  UNL1       -0.2184
      4 N           9.1839   14.0822    6.3968 N.pl3   1  UNL1       -0.2187
      5 C           7.2478   17.4695    8.0924 C.3     1  UNL1        0.1807
      6 C           6.3359   17.8700    9.2701 C.3     1  UNL1        0.0070
      7 C           5.4464   19.0606    8.8928 C.3     1  UNL1       -0.0563
      8 H           4.7855   19.2937    9.7261 H       1  UNL1        0.0236
      9 H           4.8264   18.8330    8.0279 H       1  UNL1        0.0236
     10 H           6.0448   19.9417    8.6770 H       1  UNL1        0.0236
     11 C           7.2120   18.2798   10.4640 C.3     1  UNL1       -0.0563
     12 H           6.5761   18.4813   11.3247 H       1  UNL1        0.0236
     13 H           7.7755   19.1803   10.2485 H       1  UNL1        0.0236
     14 H           7.8984   17.4779   10.7267 H       1  UNL1        0.0236
     15 C           5.4461   16.7212    9.7606 C.3     1  UNL1       -0.0563
     16 H           5.0211   16.9893   10.7268 H       1  UNL1        0.0236
     17 H           6.0268   15.8117    9.8878 H       1  UNL1        0.0236
     18 H           4.6235   16.5153    9.0835 H       1  UNL1        0.0236
     19 C           8.5309   19.5525    7.8906 C.ar    1  UNL1        0.0562
     20 C           9.5374   19.8791    8.8117 C.ar    1  UNL1       -0.0276
     21 C           9.8797   21.2112    8.9990 C.ar    1  UNL1       -0.0570
     22 H          10.6441   21.4547    9.7235 H       1  UNL1        0.0621
     23 C           9.2744   22.2160    8.2696 C.ar    1  UNL1       -0.0611
     24 H           9.5440   23.2481    8.4346 H       1  UNL1        0.0618
     25 C           8.3525   21.8826    7.2928 C.ar    1  UNL1       -0.0570
     26 H           7.9192   22.6571    6.6761 H       1  UNL1        0.0621
     27 C           7.9862   20.5648    7.0785 C.ar    1  UNL1       -0.0276
     28 C          10.2978   18.8195    9.5575 C.3     1  UNL1       -0.0379
     29 H          10.2410   18.9797   10.6342 H       1  UNL1        0.0278
     30 H          11.3482   18.8625    9.2678 H       1  UNL1        0.0278
     31 H           9.9106   17.8299    9.3248 H       1  UNL1        0.0278
     32 C           7.0761   20.2017    5.9427 C.3     1  UNL1       -0.0379
     33 H           6.8321   21.0827    5.3537 H       1  UNL1        0.0278
     34 H           6.1483   19.7533    6.2927 H       1  UNL1        0.0278
     35 H           7.5717   19.4685    5.2980 H       1  UNL1        0.0278
     36 C           6.2066   15.4328    7.2408 C.ar    1  UNL1        0.0598
     37 C           4.9231   15.8622    6.8560 C.ar    1  UNL1       -0.0384
     38 H           4.6994   16.9191    6.8478 H       1  UNL1        0.0637
     39 C           3.9720   14.9542    6.4507 C.ar    1  UNL1       -0.0599
     40 H           2.9945   15.3082    6.1544 H       1  UNL1        0.0618
     41 C           4.2477   13.5920    6.4123 C.ar    1  UNL1       -0.0610
     42 H           3.4876   12.8915    6.1026 H       1  UNL1        0.0618
     43 C           5.5089   13.1439    6.7536 C.ar    1  UNL1       -0.0506
     44 H           5.7414   12.0890    6.7097 H       1  UNL1        0.0625
     45 C           6.4811   14.0510    7.1507 C.ar    1  UNL1        0.0213
     46 C           8.1673   11.7708    7.6397 C.ar    1  UNL1       -0.0012
     47 C           8.1328   11.1132    6.4134 C.ar    1  UNL1       -0.0524
     48 H           8.1040   11.6989    5.5041 H       1  UNL1        0.0624
     49 C           8.1435    9.7324    6.3653 C.ar    1  UNL1       -0.0611
     50 H           8.1160    9.2252    5.4124 H       1  UNL1        0.0618
     51 C           8.1938    9.0015    7.5419 C.ar    1  UNL1       -0.0617
     52 H           8.2045    7.9223    7.5072 H       1  UNL1        0.0618
     53 C           8.2377    9.6540    8.7625 C.ar    1  UNL1       -0.0611
     54 H           8.2842    9.0837    9.6787 H       1  UNL1        0.0618
     55 C           8.2268   11.0374    8.8159 C.ar    1  UNL1       -0.0524
     56 H           8.2741   11.5413    9.7709 H       1  UNL1        0.0624
     57 C           8.5173   14.1890    9.2328 C.ar    1  UNL1       -0.0012
     58 C           7.6020   13.9630   10.2558 C.ar    1  UNL1       -0.0524
     59 H           6.6823   13.4344   10.0386 H       1  UNL1        0.0624
     60 C           7.8728   14.4168   11.5347 C.ar    1  UNL1       -0.0611
     61 H           7.1625   14.2438   12.3300 H       1  UNL1        0.0618
     62 C           9.0514   15.0993   11.7927 C.ar    1  UNL1       -0.0617
     63 H           9.2584   15.4553   12.7911 H       1  UNL1        0.0618
     64 C           9.9619   15.3295   10.7729 C.ar    1  UNL1       -0.0611
     65 H          10.8791   15.8620   10.9773 H       1  UNL1        0.0618
     66 C           9.6963   14.8763    9.4924 C.ar    1  UNL1       -0.0524
     67 H          10.4019   15.0459    8.6863 H       1  UNL1        0.0624
     68 C          10.3947   13.4269    6.1517 C.ar    1  UNL1        0.0528
     69 C          10.9818   13.5947    4.8914 C.ar    1  UNL1       -0.0388
     70 H          10.4694   14.2014    4.1529 H       1  UNL1        0.0637
     71 C          12.1847   12.9878    4.5923 C.ar    1  UNL1       -0.0600
     72 H          12.6238   13.1300    3.6157 H       1  UNL1        0.0618
     73 C          12.8279   12.1959    5.5313 C.ar    1  UNL1       -0.0616
     74 H          13.7671   11.7206    5.2927 H       1  UNL1        0.0618
     75 C          12.2558   12.0230    6.7795 C.ar    1  UNL1       -0.0600
     76 H          12.7485   11.4126    7.5227 H       1  UNL1        0.0618
     77 C          11.0551   12.6326    7.0892 C.ar    1  UNL1       -0.0388
     78 H          10.6221   12.5116    8.0760 H       1  UNL1        0.0637
@<TRIPOS>BOND
     1    72    71    1
     2    70    69    1
     3    71    69   ar
     4    71    73   ar
     5    69    68   ar
     6    74    73    1
     7    35    32    1
     8    33    32    1
     9    50    49    1
    10    48    47    1
    11    73    75   ar
    12    32    34    1
    13    32    27    1
    14    42    41    1
    15    68     4    1
    16    68    77   ar
    17    40    39    1
    18    49    47   ar
    19    49    51   ar
    20     4     1    1
    21    41    39   ar
    22    41    43   ar
    23    47    46   ar
    24    39    37   ar
    25    26    25    1
    26    44    43    1
    27    43    45   ar
    28    75    77   ar
    29    75    76    1
    30    38    37    1
    31    37    36   ar
    32    27    25   ar
    33    27    19   ar
    34    77    78    1
    35    45    36   ar
    36    45     1    1
    37    36     3    1
    38    25    23   ar
    39    52    51    1
    40    51    53   ar
    41     1    46    1
    42     1    57    1
    43     3     5    1
    44     2    19    1
    45     2     5    1
    46    46    55   ar
    47    19    20   ar
    48     9     7    1
    49     5     6    1
    50    23    24    1
    51    23    21   ar
    52    10     7    1
    53    67    66    1
    54    53    55   ar
    55    53    54    1
    56    20    21   ar
    57    20    28    1
    58    55    56    1
    59     7     6    1
    60     7     8    1
    61    21    22    1
    62    18    15    1
    63    57    66   ar
    64    57    58   ar
    65    30    28    1
    66     6    15    1
    67     6    11    1
    68    31    28    1
    69    66    64   ar
    70    28    29    1
    71    15    17    1
    72    15    16    1
    73    59    58    1
    74    13    11    1
    75    58    60   ar
    76    11    14    1
    77    11    12    1
    78    64    65    1
    79    64    62   ar
    80    60    62   ar
    81    60    61    1
    82    62    63    1
