@<TRIPOS>MOLECULE
2,9,16
 44 46 0 0 0
SMALL
GASTEIGER

@<TRIPOS>ATOM
      1 B          11.5318    7.9347   17.1067 B       1  UNL1        0.0000
      2 N          10.1473    9.3446   18.6711 N.pl3   1  UNL1        0.0000
      3 N          11.3711    9.0499   18.1666 N.3     1  UNL1        0.0000
      4 C          12.2652    9.9675   18.5863 C.3     1  UNL1        0.0000
      5 C          11.5908   10.8832   19.3762 C.2     1  UNL1        0.0000
      6 C          10.2612   10.4575   19.4056 C.2     1  UNL1        0.0000
      7 C          13.7089    9.9356   18.2397 C.3     1  UNL1        0.0000
      8 C           9.0921   11.0511   20.1030 C.3     1  UNL1        0.0000
      9 N           9.9341    6.4237   18.3335 N.pl3   1  UNL1        0.0000
     10 N          11.1439    6.5945   17.7386 N.3     1  UNL1        0.0000
     11 C          11.8806    5.4746   17.8561 C.3     1  UNL1        0.0000
     12 C          11.1320    4.5542   18.5643 C.2     1  UNL1        0.0000
     13 C           9.9240    5.1891   18.8574 C.2     1  UNL1        0.0000
     14 C          13.2525    5.3206   17.3091 C.3     1  UNL1        0.0000
     15 C           8.8081    4.6142   19.6519 C.3     1  UNL1        0.0000
     16 N           9.1997    8.3705   16.3381 N.pl3   1  UNL1        0.0000
     17 N          10.5088    8.2512   16.0065 N.3     1  UNL1        0.0000
     18 C          10.6856    8.5667   14.7087 C.3     1  UNL1        0.0000
     19 C           9.4504    8.9106   14.1911 C.2     1  UNL1        0.0000
     20 C           8.5438    8.7836   15.2471 C.2     1  UNL1        0.0000
     21 C          12.0030    8.5286   14.0246 C.3     1  UNL1        0.0000
     22 C           7.0870    9.0726   15.2439 C.3     1  UNL1        0.0000
     23 H          12.6291    7.9115   16.6831 H       1  UNL1        0.0000
     24 H          12.0055   11.7408   19.8653 H       1  UNL1        0.0000
     25 H          14.2230   10.7382   18.7611 H       1  UNL1        0.0000
     26 H          14.1536    8.9853   18.5298 H       1  UNL1        0.0000
     27 H          13.8536   10.0634   17.1681 H       1  UNL1        0.0000
     28 H           9.2196   12.1258   20.2100 H       1  UNL1        0.0000
     29 H           8.1774   10.8349   19.5376 H       1  UNL1        0.0000
     30 H           8.9807   10.6143   21.0974 H       1  UNL1        0.0000
     31 H          11.4168    3.5605   18.8422 H       1  UNL1        0.0000
     32 H          13.6038    4.3103   17.4994 H       1  UNL1        0.0000
     33 H          13.2646    5.5020   16.2361 H       1  UNL1        0.0000
     34 H          13.9362    6.0245   17.7808 H       1  UNL1        0.0000
     35 H           9.2178    3.9776   20.4338 H       1  UNL1        0.0000
     36 H           8.2087    5.4021   20.1136 H       1  UNL1        0.0000
     37 H           8.1572    4.0064   19.0224 H       1  UNL1        0.0000
     38 H           9.2303    9.2149   13.1888 H       1  UNL1        0.0000
     39 H          11.8722    8.7747   12.9746 H       1  UNL1        0.0000
     40 H          12.6909    9.2455   14.4705 H       1  UNL1        0.0000
     41 H          12.4485    7.5385   14.1024 H       1  UNL1        0.0000
     42 H           6.8758    9.8968   14.5661 H       1  UNL1        0.0000
     43 H           6.5183    8.2029   14.9127 H       1  UNL1        0.0000
     44 H           6.7619    9.3412   16.2551 H       1  UNL1        0.0000
@<TRIPOS>BOND
     1    39    21    1
     2    38    19    1
     3    21    41    1
     4    21    40    1
     5    21    18    1
     6    19    18    1
     7    19    20    2
     8    42    22    1
     9    18    17    1
    10    43    22    1
    11    22    20    1
    12    22    44    1
    13    20    16    1
    14    17    16    1
    15    17     1    1
    16    33    14    1
    17    23     1    1
    18     1    10    1
    19     1     3    1
    20    27     7    1
    21    14    32    1
    22    14    34    1
    23    14    11    1
    24    10    11    1
    25    10     9    1
    26    11    12    1
    27     3     4    1
    28     3     2    1
    29     7    26    1
    30     7     4    1
    31     7    25    1
    32     9    13    1
    33    12    31    1
    34    12    13    2
    35     4     5    1
    36     2     6    1
    37    13    15    1
    38    37    15    1
    39     5     6    2
    40     5    24    1
    41     6     8    1
    42    29     8    1
    43    15    36    1
    44    15    35    1
    45     8    28    1
    46     8    30    1
