@<TRIPOS>MOLECULE
2,9,16
 44 46 0 0 0
SMALL
GASTEIGER

@<TRIPOS>ATOM
      1 B          -2.3265    2.1997    2.6782 B       1  UNL1        0.0000
      2 N          -0.0949    1.9450    1.5868 N.pl3   1  UNL1        0.0000
      3 N          -1.4149    2.2141    1.4414 N.3     1  UNL1        0.0000
      4 C          -1.7186    2.3342    0.1339 C.3     1  UNL1        0.0000
      5 C          -0.5569    2.1231   -0.5850 C.2     1  UNL1        0.0000
      6 C           0.4395    1.8727    0.3631 C.2     1  UNL1        0.0000
      7 C          -3.0822    2.6385   -0.3699 C.3     1  UNL1        0.0000
      8 C           1.8667    1.5382    0.1217 C.3     1  UNL1        0.0000
      9 N          -0.9360    0.2934    3.5652 N.pl3   1  UNL1        0.0000
     10 N          -2.1673    0.7952    3.3033 N.3     1  UNL1        0.0000
     11 C          -3.0944   -0.1701    3.4653 C.3     1  UNL1        0.0000
     12 C          -2.4342   -1.3314    3.8280 C.2     1  UNL1        0.0000
     13 C          -1.0783   -1.0008    3.8724 C.2     1  UNL1        0.0000
     14 C          -4.5518    0.0412    3.2718 C.3     1  UNL1        0.0000
     15 C           0.0891   -1.8688    4.1739 C.3     1  UNL1        0.0000
     16 N          -0.5416    3.1405    4.1770 N.pl3   1  UNL1        0.0000
     17 N          -1.7971    3.2379    3.6676 N.3     1  UNL1        0.0000
     18 C          -2.4283    4.3068    4.1860 C.3     1  UNL1        0.0000
     19 C          -1.5617    4.9121    5.0738 C.2     1  UNL1        0.0000
     20 C          -0.3939    4.1488    5.0474 C.2     1  UNL1        0.0000
     21 C          -3.7981    4.7304    3.8010 C.3     1  UNL1        0.0000
     22 C           0.8237    4.4049    5.8600 C.3     1  UNL1        0.0000
     23 H          -3.4472    2.4082    2.3874 H       1  UNL1        0.0000
     24 H          -0.4407    2.1441   -1.6490 H       1  UNL1        0.0000
     25 H          -3.0529    2.7440   -1.4508 H       1  UNL1        0.0000
     26 H          -3.7757    1.8388   -0.1136 H       1  UNL1        0.0000
     27 H          -3.4564    3.5630    0.0659 H       1  UNL1        0.0000
     28 H           1.9615    0.9757   -0.8048 H       1  UNL1        0.0000
     29 H           2.4696    2.4428    0.0358 H       1  UNL1        0.0000
     30 H           2.2530    0.9374    0.9524 H       1  UNL1        0.0000
     31 H          -2.8727   -2.2874    4.0300 H       1  UNL1        0.0000
     32 H          -5.0930   -0.8421    3.5999 H       1  UNL1        0.0000
     33 H          -4.8938    0.9020    3.8419 H       1  UNL1        0.0000
     34 H          -4.7790    0.2197    2.2214 H       1  UNL1        0.0000
     35 H          -0.1024   -2.8854    3.8372 H       1  UNL1        0.0000
     36 H           0.9770   -1.4693    3.6708 H       1  UNL1        0.0000
     37 H           0.2851   -1.8909    5.2451 H       1  UNL1        0.0000
     38 H          -1.7452    5.7834    5.6670 H       1  UNL1        0.0000
     39 H          -4.0804    5.6007    4.3864 H       1  UNL1        0.0000
     40 H          -3.8355    4.9886    2.7436 H       1  UNL1        0.0000
     41 H          -4.5164    3.9351    3.9842 H       1  UNL1        0.0000
     42 H           0.5233    4.7238    6.8564 H       1  UNL1        0.0000
     43 H           1.4395    3.5099    5.9367 H       1  UNL1        0.0000
     44 H           1.4226    5.1977    5.4102 H       1  UNL1        0.0000
@<TRIPOS>BOND
     1    24     5    1
     2    25     7    1
     3    28     8    1
     4     5     4    1
     5     5     6    2
     6     7    26    1
     7     7    27    1
     8     7     4    1
     9    29     8    1
    10     8     6    1
    11     8    30    1
    12     4     3    1
    13     6     2    1
    14     3     2    1
    15     3     1    1
    16    34    14    1
    17    23     1    1
    18     1    10    1
    19     1    17    1
    20    40    21    1
    21    14    11    1
    22    14    32    1
    23    14    33    1
    24    10    11    1
    25    10     9    1
    26    11    12    1
    27     9    13    1
    28    17    16    1
    29    17    18    1
    30    36    15    1
    31    21    41    1
    32    21    18    1
    33    21    39    1
    34    12    13    2
    35    12    31    1
    36    35    15    1
    37    13    15    1
    38    15    37    1
    39    16    20    1
    40    18    19    1
    41    20    19    2
    42    20    22    1
    43    19    38    1
    44    44    22    1
    45    22    43    1
    46    22    42    1
