@<TRIPOS>MOLECULE
4,5,6
 74 76 0 0 0
SMALL
GASTEIGER

@<TRIPOS>ATOM
      1 SI          9.0041   10.2692   11.4710 Si      1  UNL1        0.0000
      2 SI         11.6386   10.0106    9.7569 Si      1  UNL1        0.0000
      3 SI         11.8210   10.2683   12.8755 Si      1  UNL1        0.0000
      4 N           8.9568    8.5816   11.1511 N.pl3   1  UNL1        0.0000
      5 N          11.9955    8.3686   10.1042 N.pl3   1  UNL1        0.0000
      6 N          11.4542    8.6027   13.1013 N.pl3   1  UNL1        0.0000
      7 C          10.8392   10.7789   11.3151 C.3     1  UNL1        0.0000
      8 H          10.8750   11.8633   11.2247 H       1  UNL1        0.0000
      9 C           8.2231   10.6152   13.2009 C.3     1  UNL1        0.0000
     10 H           7.2028   10.2400   13.2331 H       1  UNL1        0.0000
     11 H           8.1812   11.6777   13.4162 H       1  UNL1        0.0000
     12 H           8.7756   10.1387   14.0031 H       1  UNL1        0.0000
     13 C           7.9429   11.4097   10.3445 C.3     1  UNL1        0.0000
     14 H           8.2940   11.4527    9.3212 H       1  UNL1        0.0000
     15 H           7.9467   12.4234   10.7307 H       1  UNL1        0.0000
     16 H           6.9116   11.0734   10.3286 H       1  UNL1        0.0000
     17 C          10.5118   10.1177    8.1977 C.3     1  UNL1        0.0000
     18 H          11.0296    9.7830    7.3021 H       1  UNL1        0.0000
     19 H          10.2020   11.1415    8.0201 H       1  UNL1        0.0000
     20 H           9.6190    9.5142    8.3162 H       1  UNL1        0.0000
     21 C          13.1887   11.0257    9.2511 C.3     1  UNL1        0.0000
     22 H          14.0713   10.3953    9.2437 H       1  UNL1        0.0000
     23 H          13.3766   11.8487    9.9292 H       1  UNL1        0.0000
     24 H          13.0802   11.4400    8.2554 H       1  UNL1        0.0000
     25 C          13.6899   10.7015   12.6926 C.3     1  UNL1        0.0000
     26 H          14.2763   10.3237   13.5260 H       1  UNL1        0.0000
     27 H          13.8115   11.7802   12.6822 H       1  UNL1        0.0000
     28 H          14.1241   10.3171   11.7781 H       1  UNL1        0.0000
     29 C          11.3089   11.3144   14.4051 C.3     1  UNL1        0.0000
     30 H          10.6579   12.1371   14.1355 H       1  UNL1        0.0000
     31 H          12.1797   11.7339   14.8964 H       1  UNL1        0.0000
     32 H          10.7895   10.7060   15.1374 H       1  UNL1        0.0000
     33 C           7.7988    7.9644   10.7036 C.ar    1  UNL1        0.0000
     34 C           7.1332    6.9995   11.4766 C.ar    1  UNL1        0.0000
     35 H           7.5060    6.7553   12.4629 H       1  UNL1        0.0000
     36 C           5.9957    6.3682   11.0129 C.ar    1  UNL1        0.0000
     37 H           5.5148    5.6247   11.6335 H       1  UNL1        0.0000
     38 C           5.4469    6.6798    9.7745 C.ar    1  UNL1        0.0000
     39 C           6.0685    7.6703    9.0238 C.ar    1  UNL1        0.0000
     40 H           5.6477    7.9552    8.0681 H       1  UNL1        0.0000
     41 C           7.2116    8.2993    9.4749 C.ar    1  UNL1        0.0000
     42 H           7.6632    9.0809    8.8830 H       1  UNL1        0.0000
     43 C          13.2908    7.9039    9.9421 C.ar    1  UNL1        0.0000
     44 C          13.8126    7.5872    8.6810 C.ar    1  UNL1        0.0000
     45 H          13.1957    7.7400    7.8064 H       1  UNL1        0.0000
     46 C          15.1025    7.1121    8.5356 C.ar    1  UNL1        0.0000
     47 H          15.4705    6.8755    7.5463 H       1  UNL1        0.0000
     48 C          15.9387    6.9494    9.6312 C.ar    1  UNL1        0.0000
     49 C          15.4426    7.2988   10.8846 C.ar    1  UNL1        0.0000
     50 H          16.0887    7.2141   11.7488 H       1  UNL1        0.0000
     51 C          14.1551    7.7683   11.0413 C.ar    1  UNL1        0.0000
     52 H          13.7868    8.0640   12.0165 H       1  UNL1        0.0000
     53 C          11.1283    8.1056   14.3520 C.ar    1  UNL1        0.0000
     54 C          12.0582    8.0245   15.3941 C.ar    1  UNL1        0.0000
     55 H          13.0588    8.3981   15.2240 H       1  UNL1        0.0000
     56 C          11.7085    7.4905   16.6203 C.ar    1  UNL1        0.0000
     57 H          12.4516    7.4343   17.4040 H       1  UNL1        0.0000
     58 C          10.4217    7.0320   16.8639 C.ar    1  UNL1        0.0000
     59 C           9.4777    7.1523   15.8469 C.ar    1  UNL1        0.0000
     60 H           8.4618    6.8308   16.0294 H       1  UNL1        0.0000
     61 C           9.8140    7.6849   14.6198 C.ar    1  UNL1        0.0000
     62 H           9.0624    7.8208   13.8418 H       1  UNL1        0.0000
     63 C           4.2017    6.0004    9.2857 C.3     1  UNL1        0.0000
     64 H           3.3175    6.5228    9.6535 H       1  UNL1        0.0000
     65 H           4.1557    4.9736    9.6425 H       1  UNL1        0.0000
     66 H           4.1609    5.9981    8.1983 H       1  UNL1        0.0000
     67 C          17.3323    6.4146    9.4784 C.3     1  UNL1        0.0000
     68 H          18.0202    6.9364   10.1408 H       1  UNL1        0.0000
     69 H          17.6797    6.5274    8.4542 H       1  UNL1        0.0000
     70 H          17.3654    5.3532    9.7316 H       1  UNL1        0.0000
     71 C          10.0382    6.4348   18.1853 C.3     1  UNL1        0.0000
     72 H           9.1755    6.9517   18.6035 H       1  UNL1        0.0000
     73 H          10.8599    6.5000   18.8942 H       1  UNL1        0.0000
     74 H           9.7693    5.3857   18.0629 H       1  UNL1        0.0000
@<TRIPOS>BOND
     1    18    17    1
     2    47    46    1
     3    45    44    1
     4    19    17    1
     5    40    39    1
     6    17    20    1
     7    17     2    1
     8    66    63    1
     9    24    21    1
    10    69    67    1
    11    46    44   ar
    12    46    48   ar
    13    44    43   ar
    14    42    41    1
    15    39    41   ar
    16    39    38   ar
    17    22    21    1
    18    21     2    1
    19    21    23    1
    20    63    65    1
    21    63    64    1
    22    63    38    1
    23    14    13    1
    24    41    33   ar
    25    67    48    1
    26    67    70    1
    27    67    68    1
    28    48    49   ar
    29     2     5    1
    30     2     7    1
    31    38    36   ar
    32    43     5    1
    33    43    51   ar
    34    16    13    1
    35    13    15    1
    36    13     1    1
    37    33     4    1
    38    33    34   ar
    39    49    51   ar
    40    49    50    1
    41    36    34   ar
    42    36    37    1
    43    51    52    1
    44     4     1    1
    45     8     7    1
    46     7     1    1
    47     7     3    1
    48     1     9    1
    49    34    35    1
    50    28    25    1
    51    27    25    1
    52    25     3    1
    53    25    26    1
    54     3     6    1
    55     3    29    1
    56     6    53    1
    57     9    10    1
    58     9    11    1
    59     9    12    1
    60    62    61    1
    61    30    29    1
    62    53    61   ar
    63    53    54   ar
    64    29    31    1
    65    29    32    1
    66    61    59   ar
    67    55    54    1
    68    54    56   ar
    69    59    60    1
    70    59    58   ar
    71    56    58   ar
    72    56    57    1
    73    58    71    1
    74    74    71    1
    75    71    72    1
    76    71    73    1
