@<TRIPOS>MOLECULE
2,3,5
 71 74 0 0 0
SMALL
GASTEIGER

@<TRIPOS>ATOM
      1 SI          7.5800    3.1538    8.4251 Si      1  UNL1        0.0000
      2 N           6.6817    4.5570    4.9107 N.2     1  UNL1        0.5000
      3 N           7.0596    3.9827    7.0092 N.pl3   1  UNL1        0.5000
      4 N           6.1253    2.3625    9.0587 N.pl3   1  UNL1        0.0000
      5 N           4.8374    4.1618    8.3755 N.3     1  UNL1        0.0000
      6 C           7.0474    4.8389    3.5838 C.ar    1  UNL1        0.0000
      7 C           8.0470    5.7775    3.2896 C.ar    1  UNL1        0.0000
      8 C           8.3237    6.0761    1.9614 C.ar    1  UNL1        0.0000
      9 H           9.0928    6.8035    1.7424 H       1  UNL1        0.0000
     10 C           7.6418    5.4615    0.9310 C.ar    1  UNL1        0.0000
     11 H           7.8717    5.7044   -0.0957 H       1  UNL1        0.0000
     12 C           6.6644    4.5281    1.2264 C.ar    1  UNL1        0.0000
     13 H           6.1315    4.0348    0.4260 H       1  UNL1        0.0000
     14 C           6.3557    4.2072    2.5377 C.ar    1  UNL1        0.0000
     15 C           8.8355    6.4908    4.3521 C.3     1  UNL1        0.0000
     16 H           8.8678    7.5592    4.1391 H       1  UNL1        0.0000
     17 H           9.8618    6.1208    4.3648 H       1  UNL1        0.0000
     18 H           8.4087    6.3431    5.3415 H       1  UNL1        0.0000
     19 C           5.3002    3.1867    2.8302 C.3     1  UNL1        0.0000
     20 H           5.1298    2.5511    1.9638 H       1  UNL1        0.0000
     21 H           4.3618    3.6794    3.0869 H       1  UNL1        0.0000
     22 H           5.5746    2.5664    3.6837 H       1  UNL1        0.0000
     23 C           7.5108    4.0176    5.7541 C.2     1  UNL1        0.0000
     24 C           8.8433    3.4861    5.3760 C.ar    1  UNL1        0.0000
     25 C           8.9740    2.5978    4.3142 C.ar    1  UNL1        0.0000
     26 H           8.0958    2.2673    3.7803 H       1  UNL1        0.0000
     27 C          10.2242    2.1311    3.9503 C.ar    1  UNL1        0.0000
     28 H          10.3183    1.4383    3.1275 H       1  UNL1        0.0000
     29 C          11.3521    2.5543    4.6329 C.ar    1  UNL1        0.0000
     30 H          12.3278    2.1947    4.3416 H       1  UNL1        0.0000
     31 C          11.2273    3.4417    5.6891 C.ar    1  UNL1        0.0000
     32 H          12.1060    3.7762    6.2213 H       1  UNL1        0.0000
     33 C           9.9787    3.9034    6.0625 C.ar    1  UNL1        0.0000
     34 H           9.8741    4.6008    6.8811 H       1  UNL1        0.0000
     35 C           8.8619    1.7673    8.1747 C.3     1  UNL1        0.0000
     36 H           8.6803    1.2114    7.2601 H       1  UNL1        0.0000
     37 H           8.8377    1.0611    8.9958 H       1  UNL1        0.0000
     38 H           9.8632    2.1759    8.1154 H       1  UNL1        0.0000
     39 C           8.1269    4.4913    9.6857 C.3     1  UNL1        0.0000
     40 H           7.2741    5.1084    9.9617 H       1  UNL1        0.0000
     41 H           8.8836    5.1472    9.2645 H       1  UNL1        0.0000
     42 H           8.5394    4.0605   10.5918 H       1  UNL1        0.0000
     43 C           6.1033    0.9653    9.3038 C.ar    1  UNL1        0.0000
     44 C           5.5914    0.1146    8.3186 C.ar    1  UNL1        0.0000
     45 C           5.5695   -1.2514    8.5634 C.ar    1  UNL1        0.0000
     46 H           5.1687   -1.9148    7.8110 H       1  UNL1        0.0000
     47 C           6.0601   -1.7690    9.7476 C.ar    1  UNL1        0.0000
     48 H           6.0340   -2.8337    9.9252 H       1  UNL1        0.0000
     49 C           6.5964   -0.9215   10.6984 C.ar    1  UNL1        0.0000
     50 H           6.9947   -1.3244   11.6185 H       1  UNL1        0.0000
     51 C           6.6305    0.4503   10.4897 C.ar    1  UNL1        0.0000
     52 C           5.0910    0.6545    7.0136 C.3     1  UNL1        0.0000
     53 H           5.6565    1.5372    6.7001 H       1  UNL1        0.0000
     54 H           4.0445    0.9525    7.0953 H       1  UNL1        0.0000
     55 H           5.1628   -0.1064    6.2392 H       1  UNL1        0.0000
     56 C           7.2324    1.3486   11.5305 C.3     1  UNL1        0.0000
     57 H           6.8729    2.3679   11.4195 H       1  UNL1        0.0000
     58 H           8.3182    1.3625   11.4324 H       1  UNL1        0.0000
     59 H           6.9933    0.9866   12.5289 H       1  UNL1        0.0000
     60 C           4.9243    3.0302    8.9290 C.3     1  UNL1        0.0000
     61 C           3.7066    2.4151    9.5260 C.ar    1  UNL1        0.0000
     62 C           3.6961    1.8534   10.7976 C.ar    1  UNL1        0.0000
     63 H           4.5923    1.8422   11.3954 H       1  UNL1        0.0000
     64 C           2.5258    1.3267   11.3148 C.ar    1  UNL1        0.0000
     65 H           2.5277    0.8918   12.3038 H       1  UNL1        0.0000
     66 C           1.3573    1.3568   10.5733 C.ar    1  UNL1        0.0000
     67 H           0.4482    0.9365   10.9781 H       1  UNL1        0.0000
     68 C           1.3558    1.9404    9.3168 C.ar    1  UNL1        0.0000
     69 H           0.4439    1.9807    8.7397 H       1  UNL1        0.0000
     70 C           2.5197    2.4767    8.7986 C.ar    1  UNL1        0.0000
     71 H           2.5263    2.9440    7.8226 H       1  UNL1        0.0000
@<TRIPOS>BOND
     1    11    10    1
     2    13    12    1
     3    10    12   ar
     4    10     8   ar
     5    12    14   ar
     6     9     8    1
     7     8     7   ar
     8    20    19    1
     9    14    19    1
    10    14     6   ar
    11    19    21    1
    12    19    22    1
    13    28    27    1
    14     7     6   ar
    15     7    15    1
    16     6     2    1
    17    26    25    1
    18    27    25   ar
    19    27    29   ar
    20    16    15    1
    21    25    24   ar
    22    30    29    1
    23    15    17    1
    24    15    18    1
    25    29    31   ar
    26     2    23    2
    27    24    23    1
    28    24    33   ar
    29    31    33   ar
    30    31    32    1
    31    23     3    1
    32    33    34    1
    33    55    52    1
    34    53    52    1
    35     3     1    1
    36    52    54    1
    37    52    44    1
    38    36    35    1
    39    46    45    1
    40    71    70    1
    41    38    35    1
    42    35     1    1
    43    35    37    1
    44    44    45   ar
    45    44    43   ar
    46     5    60    1
    47     1     4    1
    48     1    39    1
    49    45    47   ar
    50    69    68    1
    51    70    68   ar
    52    70    61   ar
    53    60     4    1
    54    60    61    1
    55     4    43    1
    56    41    39    1
    57    43    51   ar
    58    68    66   ar
    59    61    62   ar
    60    39    40    1
    61    39    42    1
    62    47    48    1
    63    47    49   ar
    64    51    49   ar
    65    51    56    1
    66    66    67    1
    67    66    64   ar
    68    49    50    1
    69    62    64   ar
    70    62    63    1
    71    64    65    1
    72    57    56    1
    73    58    56    1
    74    56    59    1
