@<TRIPOS>MOLECULE
1,2,3
 85 88 0 0 0
SMALL
GASTEIGER

@<TRIPOS>ATOM
      1 N           4.4497   10.1036    9.9717 N.pl3   1  UNL1       -0.2145
      2 N           4.2504    9.2786    7.8990 N.pl3   1  UNL1       -0.2142
      3 N           2.3919    9.8599   11.8358 N.pl3   1  UNL1       -0.2398
      4 C           4.6787   10.2549    8.6563 C.3     1  UNL1        0.2052
      5 C           5.2467   11.5169    8.1207 C.ar    1  UNL1        0.0011
      6 C           4.7718   12.7267    8.6231 C.ar    1  UNL1       -0.0547
      7 H           4.0187   12.7200    9.3980 H       1  UNL1        0.0622
      8 C           5.2493   13.9245    8.1270 C.ar    1  UNL1       -0.0614
      9 H           4.8723   14.8571    8.5204 H       1  UNL1        0.0618
     10 C           6.2067   13.9293    7.1256 C.ar    1  UNL1       -0.0617
     11 H           6.5789   14.8657    6.7370 H       1  UNL1        0.0618
     12 C           6.6845   12.7304    6.6245 C.ar    1  UNL1       -0.0614
     13 H           7.4322   12.7294    5.8452 H       1  UNL1        0.0618
     14 C           6.2080   11.5281    7.1156 C.ar    1  UNL1       -0.0547
     15 H           6.5937   10.5985    6.7275 H       1  UNL1        0.0622
     16 C           4.3274    9.2838    6.4957 C.ar    1  UNL1        0.0576
     17 C           5.2860    8.4572    5.8814 C.ar    1  UNL1       -0.0219
     18 C           5.3137    8.3649    4.5006 C.ar    1  UNL1       -0.0565
     19 H           6.0388    7.7270    4.0199 H       1  UNL1        0.0621
     20 C           4.4254    9.0845    3.7224 C.ar    1  UNL1       -0.0611
     21 H           4.4631    9.0082    2.6457 H       1  UNL1        0.0618
     22 C           3.4884    9.8951    4.3293 C.ar    1  UNL1       -0.0565
     23 H           2.7942   10.4507    3.7169 H       1  UNL1        0.0621
     24 C           3.4179   10.0058    5.7111 C.ar    1  UNL1       -0.0219
     25 C           6.2479    7.6633    6.7376 C.3     1  UNL1       -0.0197
     26 H           6.3614    8.1863    7.6934 H       1  UNL1        0.0344
     27 C           7.6369    7.5190    6.1150 C.3     1  UNL1       -0.0586
     28 H           7.6232    6.8358    5.2693 H       1  UNL1        0.0235
     29 H           8.3294    7.1205    6.8540 H       1  UNL1        0.0235
     30 H           8.0144    8.4820    5.7759 H       1  UNL1        0.0235
     31 C           5.6446    6.2856    7.0270 C.3     1  UNL1       -0.0586
     32 H           4.6983    6.3991    7.5602 H       1  UNL1        0.0235
     33 H           6.3223    5.6951    7.6407 H       1  UNL1        0.0235
     34 H           5.4604    5.7523    6.0961 H       1  UNL1        0.0235
     35 C           2.3435   10.8649    6.3352 C.3     1  UNL1       -0.0197
     36 H           2.4468   10.8130    7.4239 H       1  UNL1        0.0344
     37 C           2.4872   12.3275    5.9085 C.3     1  UNL1       -0.0586
     38 H           3.4816   12.7010    6.1417 H       1  UNL1        0.0235
     39 H           1.7552   12.9427    6.4280 H       1  UNL1        0.0235
     40 H           2.3243   12.4354    4.8389 H       1  UNL1        0.0235
     41 C           0.9540   10.3360    5.9680 C.3     1  UNL1       -0.0586
     42 H           0.7781   10.4228    4.8985 H       1  UNL1        0.0235
     43 H           0.1872   10.9070    6.4878 H       1  UNL1        0.0235
     44 H           0.8593    9.2895    6.2482 H       1  UNL1        0.0235
     45 C           5.1352   10.7543   10.9459 C.ar    1  UNL1        0.0558
     46 C           6.4771   11.1577   10.7887 C.ar    1  UNL1       -0.0387
     47 H           6.9723   10.9521    9.8510 H       1  UNL1        0.0637
     48 C           7.1704   11.7678   11.8031 C.ar    1  UNL1       -0.0599
     49 H           8.2007   12.0542   11.6495 H       1  UNL1        0.0618
     50 C           6.5576   12.0157   13.0303 C.ar    1  UNL1       -0.0613
     51 H           7.1046   12.5006   13.8241 H       1  UNL1        0.0618
     52 C           5.2548   11.6257   13.2179 C.ar    1  UNL1       -0.0549
     53 H           4.7745   11.8006   14.1711 H       1  UNL1        0.0621
     54 C           4.5210   10.9806   12.2103 C.ar    1  UNL1       -0.0006
     55 C           3.1630   10.6299   12.5153 C.3     1  UNL1        0.0936
     56 H           2.7788   11.0862   13.4385 H       1  UNL1        0.0591
     57 C           1.0338    9.7822   12.2204 C.ar    1  UNL1        0.0554
     58 C           0.1738   10.8481   11.9009 C.ar    1  UNL1       -0.0220
     59 C          -1.1757   10.7164   12.1889 C.ar    1  UNL1       -0.0565
     60 H          -1.8595   11.5084   11.9301 H       1  UNL1        0.0621
     61 C          -1.6661    9.5870   12.8178 C.ar    1  UNL1       -0.0611
     62 H          -2.7193    9.5096   13.0430 H       1  UNL1        0.0618
     63 C          -0.8051    8.5672   13.1697 C.ar    1  UNL1       -0.0565
     64 H          -1.1923    7.7023   13.6851 H       1  UNL1        0.0621
     65 C           0.5488    8.6425   12.8730 C.ar    1  UNL1       -0.0220
     66 C           0.7111   12.0821   11.2056 C.3     1  UNL1       -0.0197
     67 H           1.7115   12.2941   11.6005 H       1  UNL1        0.0344
     68 C          -0.1397   13.3315   11.4299 C.3     1  UNL1       -0.0586
     69 H          -1.0822   13.2692   10.8916 H       1  UNL1        0.0235
     70 H           0.3948   14.2059   11.0641 H       1  UNL1        0.0235
     71 H          -0.3467   13.4745   12.4882 H       1  UNL1        0.0235
     72 C           0.8514   11.7924    9.7089 C.3     1  UNL1       -0.0586
     73 H           1.5472   10.9652    9.5557 H       1  UNL1        0.0235
     74 H           1.2263   12.6695    9.1844 H       1  UNL1        0.0235
     75 H          -0.1136   11.5186    9.2867 H       1  UNL1        0.0235
     76 C           1.4872    7.5415   13.3152 C.3     1  UNL1       -0.0197
     77 H           2.4564    7.6803   12.8148 H       1  UNL1        0.0344
     78 C           0.9665    6.1523   12.9409 C.3     1  UNL1       -0.0586
     79 H           0.0577    5.9093   13.4855 H       1  UNL1        0.0235
     80 H           1.7142    5.4014   13.1881 H       1  UNL1        0.0235
     81 H           0.7602    6.1012   11.8724 H       1  UNL1        0.0235
     82 C           1.7149    7.6433   14.8269 C.3     1  UNL1       -0.0586
     83 H           2.1478    8.6078   15.0840 H       1  UNL1        0.0235
     84 H           2.3942    6.8617   15.1597 H       1  UNL1        0.0235
     85 H           0.7748    7.5360   15.3638 H       1  UNL1        0.0235
@<TRIPOS>BOND
     1    21    20    1
     2    23    22    1
     3    20    22   ar
     4    20    18   ar
     5    19    18    1
     6    22    24   ar
     7    18    17   ar
     8    40    37    1
     9    42    41    1
    10    28    27    1
    11    24    35    1
    12    24    16   ar
    13    30    27    1
    14    13    12    1
    15    17    16   ar
    16    17    25    1
    17    37    38    1
    18    37    35    1
    19    37    39    1
    20    41    44    1
    21    41    35    1
    22    41    43    1
    23    34    31    1
    24    27    25    1
    25    27    29    1
    26    35    36    1
    27    16     2    1
    28    12    14   ar
    29    12    10   ar
    30    15    14    1
    31    11    10    1
    32    25    31    1
    33    25    26    1
    34    31    32    1
    35    31    33    1
    36    14     5   ar
    37    10     8   ar
    38     2     4    1
    39     5     6   ar
    40     5     4    1
    41     8     9    1
    42     8     6   ar
    43     6     7    1
    44     4     1    1
    45    74    72    1
    46    75    72    1
    47    73    72    1
    48    72    66    1
    49    47    46    1
    50     1    45    1
    51    46    45   ar
    52    46    48   ar
    53    69    68    1
    54    45    54   ar
    55    70    68    1
    56    66    68    1
    57    66    67    1
    58    66    58    1
    59    68    71    1
    60    49    48    1
    61    48    50   ar
    62     3    57    1
    63     3    55    1
    64    81    78    1
    65    58    59   ar
    66    58    57   ar
    67    60    59    1
    68    59    61   ar
    69    54    55    1
    70    54    52   ar
    71    57    65   ar
    72    55    56    1
    73    77    76    1
    74    61    62    1
    75    61    63   ar
    76    65    63   ar
    77    65    76    1
    78    78    80    1
    79    78    76    1
    80    78    79    1
    81    50    52   ar
    82    50    51    1
    83    63    64    1
    84    52    53    1
    85    76    82    1
    86    82    83    1
    87    82    84    1
    88    82    85    1
