@<TRIPOS>MOLECULE
1,2,3
 75 77 0 0 0
SMALL
GASTEIGER

@<TRIPOS>ATOM
      1 N           4.7918    5.5169   10.2296 N.pl3   1  UNL1       -0.2475
      2 N           6.5556    2.7851   12.5526 N.pl3   1  UNL1       -0.2441
      3 N           4.6652    4.5516   12.6438 N.pl3   1  UNL1       -0.2384
      4 C           3.7601    6.0903   11.0796 C.3     1  UNL1        0.0605
      5 C           3.8192    5.5671   12.4901 C.3     1  UNL1        0.1168
      6 C           3.0790    6.0496   13.5608 C.2     1  UNL1       -0.0551
      7 C           3.2494    5.4521   14.8020 C.2     1  UNL1       -0.0620
      8 C           4.1368    4.3954   14.9449 C.2     1  UNL1       -0.0418
      9 C           4.8369    3.9647   13.8249 C.2     1  UNL1        0.0453
     10 C           5.8174    2.8257   13.8040 C.3     1  UNL1        0.0709
     11 C           7.7357    2.0303   12.6763 C.ar    1  UNL1        0.0550
     12 C           8.9778    2.6934   12.7913 C.ar    1  UNL1       -0.0220
     13 C          10.1354    1.9551   12.9814 C.ar    1  UNL1       -0.0565
     14 C          10.1000    0.5747   13.0513 C.ar    1  UNL1       -0.0611
     15 C           8.8948   -0.0827   12.8994 C.ar    1  UNL1       -0.0565
     16 C           7.7153    0.6197   12.7061 C.ar    1  UNL1       -0.0220
     17 C           5.3398    6.4436    9.3389 C.ar    1  UNL1        0.0547
     18 C           6.0829    7.5642    9.7816 C.ar    1  UNL1       -0.0220
     19 C           6.5705    8.4728    8.8555 C.ar    1  UNL1       -0.0565
     20 C           6.3707    8.2964    7.4992 C.ar    1  UNL1       -0.0611
     21 C           5.6768    7.1851    7.0560 C.ar    1  UNL1       -0.0565
     22 C           5.1513    6.2660    7.9487 C.ar    1  UNL1       -0.0220
     23 C           9.0350    4.2055   12.7285 C.3     1  UNL1       -0.0197
     24 C           8.9580    4.8053   14.1360 C.3     1  UNL1       -0.0586
     25 C          10.2987    4.7143   12.0317 C.3     1  UNL1       -0.0586
     26 C           6.4241   -0.1353   12.4840 C.3     1  UNL1       -0.0197
     27 C           5.9905   -0.8812   13.7484 C.3     1  UNL1       -0.0586
     28 C           6.5560   -1.1193   11.3177 C.3     1  UNL1       -0.0586
     29 C           6.4426    7.7348   11.2440 C.3     1  UNL1       -0.0197
     30 C           7.9630    7.8027   11.4159 C.3     1  UNL1       -0.0586
     31 C           5.8059    8.9845   11.8571 C.3     1  UNL1       -0.0586
     32 C           4.3325    5.0999    7.4423 C.3     1  UNL1       -0.0197
     33 C           3.0666    5.6004    6.7429 C.3     1  UNL1       -0.0586
     34 C           5.1429    4.1993    6.5082 C.3     1  UNL1       -0.0586
     35 H           2.7563    5.8231   10.6876 H       1  UNL1        0.0508
     36 H           3.7927    7.1894   11.0883 H       1  UNL1        0.0508
     37 H           2.3950    6.8738   13.4296 H       1  UNL1        0.0595
     38 H           2.6976    5.8143   15.6572 H       1  UNL1        0.0616
     39 H           4.2844    3.9188   15.9019 H       1  UNL1        0.0634
     40 H           6.5027    2.9280   14.6652 H       1  UNL1        0.0544
     41 H           5.2285    1.9061   13.9953 H       1  UNL1        0.0544
     42 H          11.0839    2.4579   13.0979 H       1  UNL1        0.0621
     43 H          11.0093    0.0158   13.2189 H       1  UNL1        0.0618
     44 H           8.8745   -1.1622   12.9396 H       1  UNL1        0.0621
     45 H           7.1257    9.3359    9.1949 H       1  UNL1        0.0621
     46 H           6.7547    9.0184    6.7933 H       1  UNL1        0.0618
     47 H           5.5213    7.0501    5.9947 H       1  UNL1        0.0621
     48 H           8.1463    4.5461   12.1628 H       1  UNL1        0.0344
     49 H           9.0581    5.8884   14.0914 H       1  UNL1        0.0235
     50 H           9.7581    4.4089   14.7593 H       1  UNL1        0.0235
     51 H           8.0061    4.5692   14.6038 H       1  UNL1        0.0235
     52 H          10.2084    5.7771   11.8149 H       1  UNL1        0.0235
     53 H          10.4736    4.1798   11.1004 H       1  UNL1        0.0235
     54 H          11.1717    4.5856   12.6680 H       1  UNL1        0.0235
     55 H           5.6527    0.5961   12.2111 H       1  UNL1        0.0344
     56 H           5.0230   -1.3560   13.5947 H       1  UNL1        0.0235
     57 H           5.9125   -0.2012   14.5942 H       1  UNL1        0.0235
     58 H           6.7139   -1.6530   14.0035 H       1  UNL1        0.0235
     59 H           5.5843   -1.5500   11.0844 H       1  UNL1        0.0235
     60 H           7.2382   -1.9307   11.5605 H       1  UNL1        0.0235
     61 H           6.9307   -0.6109   10.4312 H       1  UNL1        0.0235
     62 H           6.0967    6.8461   11.7903 H       1  UNL1        0.0344
     63 H           8.2199    7.7955   12.4738 H       1  UNL1        0.0235
     64 H           8.3711    8.7086   10.9738 H       1  UNL1        0.0235
     65 H           8.4299    6.9461   10.9356 H       1  UNL1        0.0235
     66 H           6.0545    9.0550   12.9147 H       1  UNL1        0.0235
     67 H           4.7221    8.9677   11.7622 H       1  UNL1        0.0235
     68 H           6.1714    9.8794   11.3576 H       1  UNL1        0.0235
     69 H           4.0341    4.5037    8.3163 H       1  UNL1        0.0344
     70 H           2.4363    4.7604    6.4579 H       1  UNL1        0.0235
     71 H           3.3120    6.1656    5.8460 H       1  UNL1        0.0235
     72 H           2.4994    6.2465    7.4089 H       1  UNL1        0.0235
     73 H           4.5231    3.3797    6.1487 H       1  UNL1        0.0235
     74 H           5.9936    3.7783    7.0409 H       1  UNL1        0.0235
     75 H           5.5097    4.7526    5.6457 H       1  UNL1        0.0235
@<TRIPOS>BOND
     1    75    34    1
     2    71    33    1
     3    47    21    1
     4    73    34    1
     5    70    33    1
     6    34    74    1
     7    34    32    1
     8    33    72    1
     9    33    32    1
    10    46    20    1
    11    21    20   ar
    12    21    22   ar
    13    32    22    1
    14    32    69    1
    15    20    19   ar
    16    22    17   ar
    17    19    45    1
    18    19    18   ar
    19    17    18   ar
    20    17     1    1
    21    18    29    1
    22     1     4    1
    23    61    28    1
    24    35     4    1
    25    65    30    1
    26    64    30    1
    27     4    36    1
    28     4     5    1
    29    59    28    1
    30    53    25    1
    31    29    30    1
    32    29    62    1
    33    29    31    1
    34    28    60    1
    35    28    26    1
    36    68    31    1
    37    30    63    1
    38    67    31    1
    39    52    25    1
    40    31    66    1
    41    25    54    1
    42    25    23    1
    43    48    23    1
    44    55    26    1
    45    26    16    1
    46    26    27    1
    47     5     3    1
    48     5     6    1
    49     2    11    1
    50     2    10    1
    51     3     9    1
    52    11    16   ar
    53    11    12   ar
    54    16    15   ar
    55    23    12    1
    56    23    24    1
    57    12    13   ar
    58    15    44    1
    59    15    14   ar
    60    13    14   ar
    61    13    42    1
    62    14    43    1
    63    37     6    1
    64     6     7    2
    65    56    27    1
    66    27    58    1
    67    27    57    1
    68    10     9    1
    69    10    41    1
    70    10    40    1
    71     9     8    2
    72    49    24    1
    73    24    51    1
    74    24    50    1
    75     7     8    1
    76     7    38    1
    77     8    39    1
