@<TRIPOS>MOLECULE
2,3,4
 68 69 0 0 0
SMALL
GASTEIGER

@<TRIPOS>ATOM
      1 SI          8.3758   18.1972   19.0468 Si      1  UNL1        0.0000
      2 N           6.3381   14.5288   18.2513 N.pl3   1  UNL1        0.0000
      3 N           7.9586   16.4931   19.4539 N.3     1  UNL1        0.0000
      4 N           6.1596   15.4444   21.3841 N.pl3   1  UNL1        0.0000
      5 C           7.7377   14.2219   18.4202 C.3     1  UNL1        0.0000
      6 H           8.1360   13.6323   17.5832 H       1  UNL1        0.0000
      7 H           7.9251   13.6613   19.3537 H       1  UNL1        0.0000
      8 C           8.5127   15.5569   18.4629 C.3     1  UNL1        0.0000
      9 H           8.4317   16.0121   17.4710 H       1  UNL1        0.0000
     10 H           9.5773   15.3675   18.6610 H       1  UNL1        0.0000
     11 C           8.3736   16.1257   20.8220 C.3     1  UNL1        0.0000
     12 H           8.6408   15.0642   20.8447 H       1  UNL1        0.0000
     13 H           9.2523   16.7000   21.1430 H       1  UNL1        0.0000
     14 C           7.2194   16.3334   21.8131 C.3     1  UNL1        0.0000
     15 H           7.5657   16.0672   22.8257 H       1  UNL1        0.0000
     16 H           6.9478   17.4032   21.8071 H       1  UNL1        0.0000
     17 C           5.6397   14.0506   17.1507 C.ar    1  UNL1        0.0000
     18 C           5.6511   12.6987   16.7454 C.ar    1  UNL1        0.0000
     19 C           4.9235   12.3101   15.6321 C.ar    1  UNL1        0.0000
     20 H           4.9441   11.2685   15.3405 H       1  UNL1        0.0000
     21 C           4.1559   13.2001   14.8972 C.ar    1  UNL1        0.0000
     22 C           4.1229   14.5224   15.3140 C.ar    1  UNL1        0.0000
     23 H           3.5234   15.2360   14.7649 H       1  UNL1        0.0000
     24 C           4.8459   14.9591   16.4107 C.ar    1  UNL1        0.0000
     25 C           6.3793   11.6349   17.5230 C.3     1  UNL1        0.0000
     26 H           7.3853   11.4706   17.1335 H       1  UNL1        0.0000
     27 H           5.8392   10.6935   17.4432 H       1  UNL1        0.0000
     28 H           6.4516   11.9025   18.5736 H       1  UNL1        0.0000
     29 C           3.3554   12.7426   13.7149 C.3     1  UNL1        0.0000
     30 H           2.3486   12.4648   14.0293 H       1  UNL1        0.0000
     31 H           3.8145   11.8740   13.2479 H       1  UNL1        0.0000
     32 H           3.2686   13.5364   12.9757 H       1  UNL1        0.0000
     33 C           4.7914   16.4217   16.7829 C.3     1  UNL1        0.0000
     34 H           5.6779   16.6984   17.3837 H       1  UNL1        0.0000
     35 H           3.8772   16.6394   17.3532 H       1  UNL1        0.0000
     36 H           4.7665   17.0338   15.8786 H       1  UNL1        0.0000
     37 C           7.5250   18.7320   17.4261 C.3     1  UNL1        0.0000
     38 H           7.5709   17.9810   16.6415 H       1  UNL1        0.0000
     39 H           8.0280   19.6161   17.0472 H       1  UNL1        0.0000
     40 H           6.4867   19.0004   17.5916 H       1  UNL1        0.0000
     41 C          10.2683   18.2059   18.7107 C.3     1  UNL1        0.0000
     42 H          10.5223   17.7026   17.7833 H       1  UNL1        0.0000
     43 H          10.8332   17.7280   19.5057 H       1  UNL1        0.0000
     44 H          10.6321   19.2241   18.6304 H       1  UNL1        0.0000
     45 C           8.1027   19.4234   20.4774 C.3     1  UNL1        0.0000
     46 H           8.6373   19.1436   21.3801 H       1  UNL1        0.0000
     47 H           7.0521   19.5398   20.7159 H       1  UNL1        0.0000
     48 H           8.4738   20.3967   20.1727 H       1  UNL1        0.0000
     49 C           5.1076   15.0875   22.2271 C.ar    1  UNL1        0.0000
     50 C           4.4697   15.9205   23.1686 C.ar    1  UNL1        0.0000
     51 C           3.4573   15.3935   23.9601 C.ar    1  UNL1        0.0000
     52 H           2.9773   16.0421   24.6809 H       1  UNL1        0.0000
     53 C           3.0204   14.0849   23.8422 C.ar    1  UNL1        0.0000
     54 C           3.6142   13.2846   22.8740 C.ar    1  UNL1        0.0000
     55 H           3.2694   12.2682   22.7423 H       1  UNL1        0.0000
     56 C           4.6381   13.7595   22.0794 C.ar    1  UNL1        0.0000
     57 C           4.7739   17.3897   23.2897 C.3     1  UNL1        0.0000
     58 H           4.0105   17.8698   23.8986 H       1  UNL1        0.0000
     59 H           4.7608   17.8584   22.3034 H       1  UNL1        0.0000
     60 H           5.7400   17.5752   23.7594 H       1  UNL1        0.0000
     61 C           1.9089   13.5526   24.6964 C.3     1  UNL1        0.0000
     62 H           2.1391   12.5475   25.0458 H       1  UNL1        0.0000
     63 H           0.9848   13.5026   24.1199 H       1  UNL1        0.0000
     64 H           1.7389   14.1941   25.5578 H       1  UNL1        0.0000
     65 C           5.2703   12.8817   21.0344 C.3     1  UNL1        0.0000
     66 H           6.3594   12.9119   21.1331 H       1  UNL1        0.0000
     67 H           5.0003   13.2405   20.0298 H       1  UNL1        0.0000
     68 H           4.9277   11.8546   21.1443 H       1  UNL1        0.0000
@<TRIPOS>BOND
     1    32    29    1
     2    31    29    1
     3    29    30    1
     4    29    21    1
     5    23    22    1
     6    21    22   ar
     7    21    19   ar
     8    22    24   ar
     9    20    19    1
    10    19    18   ar
    11    36    33    1
    12    24    33    1
    13    24    17   ar
    14    38    37    1
    15    18    17   ar
    16    18    25    1
    17    33    35    1
    18    33    34    1
    19    39    37    1
    20    26    25    1
    21    17     2    1
    22    37    40    1
    23    37     1    1
    24    27    25    1
    25     9     8    1
    26    25    28    1
    27     6     5    1
    28    42    41    1
    29     2     5    1
    30     5     8    1
    31     5     7    1
    32     8    10    1
    33     8     3    1
    34    44    41    1
    35    41     1    1
    36    41    43    1
    37     1     3    1
    38     1    45    1
    39     3    11    1
    40    67    65    1
    41    48    45    1
    42    45    47    1
    43    45    46    1
    44    11    12    1
    45    11    13    1
    46    11    14    1
    47    65    66    1
    48    65    68    1
    49    65    56    1
    50     4    14    1
    51     4    49    1
    52    16    14    1
    53    14    15    1
    54    56    49   ar
    55    56    54   ar
    56    49    50   ar
    57    59    57    1
    58    55    54    1
    59    54    53   ar
    60    50    57    1
    61    50    51   ar
    62    57    60    1
    63    57    58    1
    64    53    51   ar
    65    53    61    1
    66    51    52    1
    67    63    61    1
    68    61    62    1
    69    61    64    1
