@<TRIPOS>MOLECULE
2,3,4
 68 69 0 0 0
SMALL
GASTEIGER

@<TRIPOS>ATOM
      1 SI          4.5945   16.3340   24.1735 Si      1  UNL1        0.0000
      2 N           4.3649   12.7390   23.0861 N.pl3   1  UNL1        0.0000
      3 N           4.6273   15.3857   22.6451 N.3     1  UNL1        0.0000
      4 N           2.9793   14.3809   20.7468 N.pl3   1  UNL1        0.0000
      5 C           5.6792   13.2918   23.3316 C.3     1  UNL1        0.0000
      6 H           6.4755   12.5792   23.0718 H       1  UNL1        0.0000
      7 H           5.8058   13.5368   24.3999 H       1  UNL1        0.0000
      8 C           5.8304   14.5613   22.4989 C.3     1  UNL1        0.0000
      9 H           6.7378   15.1082   22.7872 H       1  UNL1        0.0000
     10 H           5.9347   14.2688   21.4495 H       1  UNL1        0.0000
     11 C           4.4133   16.2047   21.4535 C.3     1  UNL1        0.0000
     12 H           5.3276   16.7552   21.1805 H       1  UNL1        0.0000
     13 H           3.6276   16.9262   21.6785 H       1  UNL1        0.0000
     14 C           3.9421   15.3445   20.2701 C.3     1  UNL1        0.0000
     15 H           3.5030   15.9980   19.5020 H       1  UNL1        0.0000
     16 H           4.8042   14.8395   19.7916 H       1  UNL1        0.0000
     17 C           4.2698   11.3338   23.1690 C.ar    1  UNL1        0.0000
     18 C           4.8810   10.5106   22.2090 C.ar    1  UNL1        0.0000
     19 C           4.7645    9.1319   22.3123 C.ar    1  UNL1        0.0000
     20 H           5.2339    8.5123   21.5600 H       1  UNL1        0.0000
     21 C           4.0569    8.5355   23.3423 C.ar    1  UNL1        0.0000
     22 C           3.4568    9.3573   24.2871 C.ar    1  UNL1        0.0000
     23 H           2.8999    8.9075   25.0974 H       1  UNL1        0.0000
     24 C           3.5532   10.7367   24.2223 C.ar    1  UNL1        0.0000
     25 C           5.6423   11.0950   21.0509 C.3     1  UNL1        0.0000
     26 H           5.2979   12.1109   20.8477 H       1  UNL1        0.0000
     27 H           5.4957   10.4845   20.1619 H       1  UNL1        0.0000
     28 H           6.7131   11.1207   21.2619 H       1  UNL1        0.0000
     29 C           3.9535    7.0439   23.4515 C.3     1  UNL1        0.0000
     30 H           4.1625    6.5691   22.4954 H       1  UNL1        0.0000
     31 H           2.9586    6.7508   23.7809 H       1  UNL1        0.0000
     32 H           4.6728    6.6703   24.1822 H       1  UNL1        0.0000
     33 C           2.9133   11.5822   25.2868 C.3     1  UNL1        0.0000
     34 H           3.6795   12.0358   25.9196 H       1  UNL1        0.0000
     35 H           2.2693   10.9722   25.9162 H       1  UNL1        0.0000
     36 H           2.3072   12.3784   24.8409 H       1  UNL1        0.0000
     37 C           4.2765   15.2497   25.7086 C.3     1  UNL1        0.0000
     38 H           3.8784   14.2763   25.4373 H       1  UNL1        0.0000
     39 H           3.5389   15.7274   26.3447 H       1  UNL1        0.0000
     40 H           5.1772   15.1100   26.2999 H       1  UNL1        0.0000
     41 C           6.3382   17.1193   24.3828 C.3     1  UNL1        0.0000
     42 H           7.0896   16.4011   24.6966 H       1  UNL1        0.0000
     43 H           6.3018   17.8906   25.1443 H       1  UNL1        0.0000
     44 H           6.6899   17.5899   23.4690 H       1  UNL1        0.0000
     45 C           3.4083   17.8233   24.0451 C.3     1  UNL1        0.0000
     46 H           3.7772   18.5879   23.3676 H       1  UNL1        0.0000
     47 H           3.3209   18.2811   25.0248 H       1  UNL1        0.0000
     48 H           2.4100   17.5340   23.7377 H       1  UNL1        0.0000
     49 C           1.8534   14.1831   19.9151 C.ar    1  UNL1        0.0000
     50 C           0.8283   15.1389   19.8373 C.ar    1  UNL1        0.0000
     51 C          -0.2542   14.9086   18.9997 C.ar    1  UNL1        0.0000
     52 H          -1.0433   15.6469   18.9534 H       1  UNL1        0.0000
     53 C          -0.3547   13.7592   18.2331 C.ar    1  UNL1        0.0000
     54 C           0.6673   12.8233   18.3147 C.ar    1  UNL1        0.0000
     55 H           0.6056   11.9199   17.7235 H       1  UNL1        0.0000
     56 C           1.7658   13.0185   19.1334 C.ar    1  UNL1        0.0000
     57 C           0.8740   16.3945   20.6610 C.3     1  UNL1        0.0000
     58 H           1.5131   17.1468   20.1946 H       1  UNL1        0.0000
     59 H           1.2629   16.1771   21.6582 H       1  UNL1        0.0000
     60 H          -0.1241   16.8161   20.7578 H       1  UNL1        0.0000
     61 C          -1.5459   13.5145   17.3566 C.3     1  UNL1        0.0000
     62 H          -2.2614   12.8743   17.8736 H       1  UNL1        0.0000
     63 H          -1.2526   13.0133   16.4365 H       1  UNL1        0.0000
     64 H          -2.0448   14.4481   17.1075 H       1  UNL1        0.0000
     65 C           2.8611   11.9951   19.1962 C.3     1  UNL1        0.0000
     66 H           3.8167   12.4456   18.9241 H       1  UNL1        0.0000
     67 H           2.6552   11.1743   18.5134 H       1  UNL1        0.0000
     68 H           2.9392   11.5969   20.2124 H       1  UNL1        0.0000
@<TRIPOS>BOND
     1    63    61    1
     2    64    61    1
     3    61    62    1
     4    61    53    1
     5    55    54    1
     6    53    54   ar
     7    53    51   ar
     8    54    56   ar
     9    67    65    1
    10    66    65    1
    11    52    51    1
    12    51    50   ar
    13    56    65    1
    14    56    49   ar
    15    65    68    1
    16    15    14    1
    17    16    14    1
    18    50    49   ar
    19    50    57    1
    20    49     4    1
    21    27    25    1
    22    58    57    1
    23    14     4    1
    24    14    11    1
    25    57    60    1
    26    57    59    1
    27    26    25    1
    28    25    28    1
    29    25    18    1
    30    12    11    1
    31    10     8    1
    32    11    13    1
    33    11     3    1
    34    20    19    1
    35    18    19   ar
    36    18    17   ar
    37    19    21   ar
    38    30    29    1
    39     8     3    1
    40     8     9    1
    41     8     5    1
    42     3     1    1
    43     6     5    1
    44     2    17    1
    45     2     5    1
    46    17    24   ar
    47     5     7    1
    48    21    29    1
    49    21    22   ar
    50    46    45    1
    51    29    31    1
    52    29    32    1
    53    44    41    1
    54    48    45    1
    55    45     1    1
    56    45    47    1
    57     1    41    1
    58     1    37    1
    59    24    22   ar
    60    24    33    1
    61    22    23    1
    62    41    42    1
    63    41    43    1
    64    36    33    1
    65    33    35    1
    66    33    34    1
    67    38    37    1
    68    37    40    1
    69    37    39    1
