@<TRIPOS>MOLECULE
1,38,83
 83 87 0 0 0
SMALL
GASTEIGER

@<TRIPOS>ATOM
      1 N           9.5802    6.1203    5.8620 N.3     1  UNL1        0.0000
      2 SI          8.0009    5.4306    5.6193 Si      1  UNL1        0.0000
      3 C           8.0854    3.5899    5.1223 C.3     1  UNL1        0.0000
      4 H           8.4455    3.4673    4.1049 H       1  UNL1        0.0000
      5 H           7.1009    3.1372    5.1805 H       1  UNL1        0.0000
      6 H           8.7485    3.0304    5.7746 H       1  UNL1        0.0000
      7 C           7.2247    5.6506    7.3402 C.3     1  UNL1        0.0000
      8 H           7.9935    5.4932    8.1008 H       1  UNL1        0.0000
      9 H           6.4286    4.9388    7.5266 H       1  UNL1        0.0000
     10 H           6.8238    6.6498    7.4794 H       1  UNL1        0.0000
     11 C           7.0644    6.4036    4.2724 C.3     1  UNL1        0.0000
     12 H           6.8511    7.4213    4.5816 H       1  UNL1        0.0000
     13 H           6.1207    5.9187    4.0491 H       1  UNL1        0.0000
     14 H           7.6394    6.4530    3.3521 H       1  UNL1        0.0000
     15 P          10.7047    6.3184    4.7682 P.3     1  UNL1        0.0000
     16 C          11.0823    4.8576    3.7614 C.ar    1  UNL1        0.0000
     17 C          10.4130    4.6408    2.5619 C.ar    1  UNL1        0.0000
     18 H           9.7443    5.3997    2.1775 H       1  UNL1        0.0000
     19 C          10.6057    3.4590    1.8704 C.ar    1  UNL1        0.0000
     20 H          10.0899    3.2915    0.9361 H       1  UNL1        0.0000
     21 C          11.4515    2.4870    2.3820 C.ar    1  UNL1        0.0000
     22 H          11.5952    1.5626    1.8425 H       1  UNL1        0.0000
     23 C          12.1021    2.6931    3.5880 C.ar    1  UNL1        0.0000
     24 H          12.7470    1.9289    3.9943 H       1  UNL1        0.0000
     25 C          11.9165    3.8750    4.2814 C.ar    1  UNL1        0.0000
     26 H          12.4050    4.0351    5.2324 H       1  UNL1        0.0000
     27 C          10.4531    7.7162    3.6333 C.ar    1  UNL1        0.0000
     28 C           9.6284    8.7462    4.0695 C.ar    1  UNL1        0.0000
     29 H           9.1417    8.6593    5.0302 H       1  UNL1        0.0000
     30 C           9.4459    9.8650    3.2773 C.ar    1  UNL1        0.0000
     31 H           8.8030   10.6631    3.6162 H       1  UNL1        0.0000
     32 C          10.0921    9.9595    2.0551 C.ar    1  UNL1        0.0000
     33 H           9.9489   10.8312    1.4337 H       1  UNL1        0.0000
     34 C          10.9278    8.9394    1.6268 C.ar    1  UNL1        0.0000
     35 H          11.4357    9.0190    0.6765 H       1  UNL1        0.0000
     36 C          11.1148    7.8180    2.4144 C.ar    1  UNL1        0.0000
     37 H          11.7647    7.0199    2.0816 H       1  UNL1        0.0000
     38 N          11.1234    6.5315    9.7083 N.3     1  UNL1        0.0000
     39 SI         10.1845    6.5884   11.1777 Si      1  UNL1        0.0000
     40 C          11.1355    5.6955   12.5718 C.3     1  UNL1        0.0000
     41 H          11.2041    4.6273   12.3950 H       1  UNL1        0.0000
     42 H          10.6296    5.8427   13.5197 H       1  UNL1        0.0000
     43 H          12.1477    6.0767   12.6723 H       1  UNL1        0.0000
     44 C           8.5670    5.6699   10.7927 C.3     1  UNL1        0.0000
     45 H           7.8991    6.2931   10.2065 H       1  UNL1        0.0000
     46 H           8.0495    5.4161   11.7111 H       1  UNL1        0.0000
     47 H           8.7451    4.7454   10.2509 H       1  UNL1        0.0000
     48 C           9.8114    8.3777   11.7307 C.3     1  UNL1        0.0000
     49 H          10.6771    8.8490   12.1871 H       1  UNL1        0.0000
     50 H           9.0091    8.3834   12.4617 H       1  UNL1        0.0000
     51 H           9.5025    8.9975   10.8946 H       1  UNL1        0.0000
     52 P          12.6242    7.0335    9.6347 P.3     1  UNL1        0.0000
     53 C          12.9443    8.6767   10.3346 C.ar    1  UNL1        0.0000
     54 C          12.5890    9.7927    9.5853 C.ar    1  UNL1        0.0000
     55 H          12.2115    9.6642    8.5803 H       1  UNL1        0.0000
     56 C          12.7012   11.0563   10.1350 C.ar    1  UNL1        0.0000
     57 H          12.4206   11.9208    9.5529 H       1  UNL1        0.0000
     58 C          13.1618   11.2091   11.4330 C.ar    1  UNL1        0.0000
     59 H          13.2480   12.1960   11.8627 H       1  UNL1        0.0000
     60 C          13.5021   10.0970   12.1870 C.ar    1  UNL1        0.0000
     61 H          13.8500   10.2165   13.2027 H       1  UNL1        0.0000
     62 C          13.3870    8.8304   11.6435 C.ar    1  UNL1        0.0000
     63 H          13.6385    7.9586   12.2323 H       1  UNL1        0.0000
     64 C          13.8721    5.8955   10.3095 C.ar    1  UNL1        0.0000
     65 C          15.1596    6.3093   10.6348 C.ar    1  UNL1        0.0000
     66 H          15.4331    7.3523   10.5491 H       1  UNL1        0.0000
     67 C          16.0845    5.3823   11.0797 C.ar    1  UNL1        0.0000
     68 H          17.0831    5.7026   11.3398 H       1  UNL1        0.0000
     69 C          15.7328    4.0459   11.1906 C.ar    1  UNL1        0.0000
     70 H          16.4600    3.3279   11.5404 H       1  UNL1        0.0000
     71 C          14.4555    3.6309   10.8500 C.ar    1  UNL1        0.0000
     72 H          14.1830    2.5893   10.9263 H       1  UNL1        0.0000
     73 C          13.5254    4.5533   10.4065 C.ar    1  UNL1        0.0000
     74 H          12.5280    4.2462   10.1274 H       1  UNL1        0.0000
     75 C          12.1544    6.7446    5.7477 C.3     1  UNL1        0.0000
     76 C          13.3683    7.0798    5.1823 C.2     1  UNL1        0.0000
     77 H          13.4652    7.0514    4.1066 H       1  UNL1        0.0000
     78 C          14.4361    7.4392    5.9955 C.2     1  UNL1        0.0000
     79 H          15.3951    7.7016    5.5800 H       1  UNL1        0.0000
     80 C          14.2160    7.4441    7.3681 C.2     1  UNL1        0.0000
     81 H          15.0014    7.7096    8.0606 H       1  UNL1        0.0000
     82 C          12.9738    7.1094    7.8681 C.2     1  UNL1        0.0000
     83 N          11.9182    6.7538    7.0885 N.pl3   1  UNL1        0.0000
@<TRIPOS>BOND
     1    35    34    1
     2    20    19    1
     3    33    32    1
     4    34    32   ar
     5    34    36   ar
     6    22    21    1
     7    19    21   ar
     8    19    17   ar
     9    32    30   ar
    10    37    36    1
    11    18    17    1
    12    21    23   ar
    13    36    27   ar
    14    17    16   ar
    15    30    31    1
    16    30    28   ar
    17    14    11    1
    18    23    24    1
    19    23    25   ar
    20    27    28   ar
    21    27    15    1
    22    16    25   ar
    23    16    15    1
    24    13    11    1
    25    28    29    1
    26     4     3    1
    27    77    76    1
    28    11    12    1
    29    11     2    1
    30    25    26    1
    31    15    75    1
    32    15     1    1
    33     3     5    1
    34     3     2    1
    35     3     6    1
    36    76    75    1
    37    76    78    2
    38    79    78    1
    39     2     1    1
    40     2     7    1
    41    75    83    1
    42    78    80    1
    43    83    82    1
    44     7    10    1
    45     7     9    1
    46     7     8    1
    47    80    82    2
    48    80    81    1
    49    82    52    1
    50    55    54    1
    51    57    56    1
    52    54    56   ar
    53    54    53   ar
    54    52    38    1
    55    52    64    1
    56    52    53    1
    57    38    39    1
    58    74    73    1
    59    56    58   ar
    60    45    44    1
    61    47    44    1
    62    64    73   ar
    63    64    65   ar
    64    53    62   ar
    65    73    71   ar
    66    66    65    1
    67    65    67   ar
    68    44    39    1
    69    44    46    1
    70    71    72    1
    71    71    69   ar
    72    51    48    1
    73    67    69   ar
    74    67    68    1
    75    39    48    1
    76    39    40    1
    77    69    70    1
    78    58    59    1
    79    58    60   ar
    80    62    60   ar
    81    62    63    1
    82    48    49    1
    83    48    50    1
    84    60    61    1
    85    41    40    1
    86    40    43    1
    87    40    42    1
