@<TRIPOS>MOLECULE
3,4,5
 67 67 0 0 0
SMALL
GASTEIGER

@<TRIPOS>ATOM
      1 SI          2.1376    0.9287    6.2232 Si      1  UNL1        0.0000
      2 SI         -2.1193    4.6183    3.2631 Si      1  UNL1        0.0000
      3 N          -0.6224    4.1180    3.8828 N.3     1  UNL1        0.0000
      4 N           1.5686    2.1222    5.1596 N.3     1  UNL1        0.0000
      5 N           0.9409    2.4110    2.3520 N.pl3   1  UNL1        0.0000
      6 C           0.6986   -0.3358    6.3298 C.3     1  UNL1        0.0000
      7 H           0.1838   -0.2891    7.2843 H       1  UNL1        0.0000
      8 H           1.0654   -1.3497    6.2103 H       1  UNL1        0.0000
      9 H          -0.0321   -0.1385    5.5439 H       1  UNL1        0.0000
     10 C           0.5652    4.9252    3.8459 C.3     1  UNL1        0.0000
     11 H           0.6535    5.5100    4.7828 H       1  UNL1        0.0000
     12 H           0.5228    5.6650    3.0298 H       1  UNL1        0.0000
     13 C           0.8583    1.6457    1.2456 C.3     1  UNL1        0.0000
     14 H           0.0262    0.9487    1.2157 H       1  UNL1        0.0000
     15 C           1.4755    2.3902    8.5947 C.3     1  UNL1        0.0000
     16 H           0.5237    1.8622    8.6127 H       1  UNL1        0.0000
     17 H           1.3562    3.2825    7.9841 H       1  UNL1        0.0000
     18 H           1.7091    2.7040    9.6134 H       1  UNL1        0.0000
     19 C           2.9941    5.3001    3.6000 C.3     1  UNL1        0.0000
     20 H           4.0005    4.8909    3.5459 H       1  UNL1        0.0000
     21 H           2.9367    5.9176    4.4942 H       1  UNL1        0.0000
     22 H           2.8215    5.9418    2.7388 H       1  UNL1        0.0000
     23 C           1.9368    4.1857    3.6808 C.3     1  UNL1        0.0000
     24 C           2.3187    3.3291    4.9299 C.3     1  UNL1        0.0000
     25 H           3.3929    3.0944    4.8181 H       1  UNL1        0.0000
     26 H           2.2397    4.0124    5.7973 H       1  UNL1        0.0000
     27 C           1.9250    3.3287    2.4377 C.2     1  UNL1        0.0000
     28 C          -1.0537    4.8498    0.6174 C.3     1  UNL1        0.0000
     29 H          -1.1390    4.7016   -0.4602 H       1  UNL1        0.0000
     30 H          -0.1886    4.2928    0.9708 H       1  UNL1        0.0000
     31 H          -0.8793    5.9093    0.7974 H       1  UNL1        0.0000
     32 C           2.5843    1.4977    8.0350 C.3     1  UNL1        0.0000
     33 C           2.7786    2.6633    0.2829 C.2     1  UNL1        0.0000
     34 H           3.5022    2.7677   -0.5107 H       1  UNL1        0.0000
     35 C           1.7479    1.7360    0.1968 C.2     1  UNL1        0.0000
     36 H           1.6406    1.0983   -0.6661 H       1  UNL1        0.0000
     37 C           2.8553    3.4698    1.4128 C.2     1  UNL1        0.0000
     38 H           3.6444    4.1990    1.4775 H       1  UNL1        0.0000
     39 C          -2.5547    6.4430    3.6899 C.3     1  UNL1        0.0000
     40 H          -2.4041    6.6338    4.7477 H       1  UNL1        0.0000
     41 H          -3.5853    6.6837    3.4562 H       1  UNL1        0.0000
     42 H          -1.9222    7.1339    3.1420 H       1  UNL1        0.0000
     43 C          -3.3925    3.4495    4.0901 C.3     1  UNL1        0.0000
     44 H          -3.0296    2.4209    4.0153 H       1  UNL1        0.0000
     45 H          -4.3598    3.5097    3.6032 H       1  UNL1        0.0000
     46 H          -3.5466    3.6910    5.1382 H       1  UNL1        0.0000
     47 C           3.8930    2.2887    8.0396 C.3     1  UNL1        0.0000
     48 H           4.1404    2.6195    9.0493 H       1  UNL1        0.0000
     49 H           3.8175    3.1677    7.4044 H       1  UNL1        0.0000
     50 H           4.7134    1.6772    7.6733 H       1  UNL1        0.0000
     51 C          -2.3201    4.3804    1.3354 C.3     1  UNL1        0.0000
     52 C          -2.5144    2.8855    1.0613 C.3     1  UNL1        0.0000
     53 H          -2.3695    2.6647    0.0026 H       1  UNL1        0.0000
     54 H          -3.5243    2.5841    1.3300 H       1  UNL1        0.0000
     55 H          -1.8154    2.2871    1.6565 H       1  UNL1        0.0000
     56 C           3.7074    0.0065    5.5767 C.3     1  UNL1        0.0000
     57 H           4.4272    0.7075    5.1633 H       1  UNL1        0.0000
     58 H           3.4510   -0.6977    4.7914 H       1  UNL1        0.0000
     59 H           4.2122   -0.5516    6.3581 H       1  UNL1        0.0000
     60 C           2.7499    0.2956    8.9666 C.3     1  UNL1        0.0000
     61 H           3.0015    0.6265    9.9749 H       1  UNL1        0.0000
     62 H           3.5447   -0.3590    8.6191 H       1  UNL1        0.0000
     63 H           1.8323   -0.2843    9.0196 H       1  UNL1        0.0000
     64 C          -3.5130    5.1454    0.7586 C.3     1  UNL1        0.0000
     65 H          -3.3737    6.2179    0.8686 H       1  UNL1        0.0000
     66 H          -4.4325    4.8678    1.2680 H       1  UNL1        0.0000
     67 H          -3.6318    4.9248   -0.3027 H       1  UNL1        0.0000
@<TRIPOS>BOND
     1    36    35    1
     2    34    33    1
     3    29    28    1
     4    67    64    1
     5    53    52    1
     6    35    33    2
     7    35    13    1
     8    33    37    1
     9    28    31    1
    10    28    30    1
    11    28    51    1
    12    64    65    1
    13    64    66    1
    14    64    51    1
    15    52    54    1
    16    52    51    1
    17    52    55    1
    18    14    13    1
    19    13     5    1
    20    51     2    1
    21    37    38    1
    22    37    27    2
    23     5    27    1
    24    27    23    1
    25    22    19    1
    26    12    10    1
    27    42    39    1
    28     2    39    1
    29     2     3    1
    30     2    43    1
    31    41    39    1
    32    20    19    1
    33    19    23    1
    34    19    21    1
    35    45    43    1
    36    23    10    1
    37    23    24    1
    38    39    40    1
    39    10     3    1
    40    10    11    1
    41    44    43    1
    42    43    46    1
    43    58    56    1
    44    25    24    1
    45    24     4    1
    46    24    26    1
    47     4     1    1
    48    57    56    1
    49     9     6    1
    50    56     1    1
    51    56    59    1
    52     8     6    1
    53     1     6    1
    54     1    32    1
    55     6     7    1
    56    49    47    1
    57    50    47    1
    58    17    15    1
    59    32    47    1
    60    32    15    1
    61    32    60    1
    62    47    48    1
    63    15    16    1
    64    15    18    1
    65    62    60    1
    66    60    63    1
    67    60    61    1
