@<TRIPOS>MOLECULE
2,3,5
 72 75 0 0 0
SMALL
GASTEIGER

@<TRIPOS>ATOM
      1 SI          1.1889    1.9569    4.1650 Si      1  UNL1        0.0000
      2 N          -1.9545    3.7334    2.7172 N.pl3   1  UNL1        0.0000
      3 N          -0.2722    2.5737    3.5595 N.3     1  UNL1        0.0000
      4 N           0.7374    0.2291    4.4581 N.pl3   1  UNL1        0.0000
      5 N          -0.2509   -0.0954    2.3799 N.3     1  UNL1        0.0000
      6 H          -0.6045   -0.8741    1.8126 H       1  UNL1        0.0000
      7 C          -2.7450    4.8743    2.4592 C.ar    1  UNL1        0.0000
      8 C          -4.0106    4.9437    3.0623 C.ar    1  UNL1        0.0000
      9 C          -4.8319    6.0240    2.7826 C.ar    1  UNL1        0.0000
     10 H          -5.8057    6.0825    3.2471 H       1  UNL1        0.0000
     11 C          -4.4177    7.0210    1.9167 C.ar    1  UNL1        0.0000
     12 H          -5.0660    7.8583    1.7058 H       1  UNL1        0.0000
     13 C          -3.1772    6.9358    1.3139 C.ar    1  UNL1        0.0000
     14 H          -2.8583    7.7066    0.6274 H       1  UNL1        0.0000
     15 C          -2.3253    5.8684    1.5674 C.ar    1  UNL1        0.0000
     16 C          -4.4448    3.8609    4.0036 C.3     1  UNL1        0.0000
     17 H          -5.5071    3.9432    4.2215 H       1  UNL1        0.0000
     18 H          -3.8949    3.9227    4.9445 H       1  UNL1        0.0000
     19 H          -4.2369    2.8744    3.5814 H       1  UNL1        0.0000
     20 C          -0.9959    5.7859    0.8808 C.3     1  UNL1        0.0000
     21 H          -0.2281    6.2729    1.4840 H       1  UNL1        0.0000
     22 H          -1.0376    6.2912   -0.0817 H       1  UNL1        0.0000
     23 H          -0.6930    4.7489    0.7252 H       1  UNL1        0.0000
     24 C          -0.8474    3.7582    3.4303 C.3     1  UNL1        0.0000
     25 C          -0.2914    4.9889    4.0373 C.ar    1  UNL1        0.0000
     26 C          -1.0563    5.7881    4.8791 C.ar    1  UNL1        0.0000
     27 H          -2.0697    5.5033    5.1167 H       1  UNL1        0.0000
     28 C          -0.5128    6.9395    5.4209 C.ar    1  UNL1        0.0000
     29 H          -1.1095    7.5551    6.0775 H       1  UNL1        0.0000
     30 C           0.7878    7.3060    5.1186 C.ar    1  UNL1        0.0000
     31 H           1.2066    8.2085    5.5385 H       1  UNL1        0.0000
     32 C           1.5497    6.5162    4.2725 C.ar    1  UNL1        0.0000
     33 H           2.5613    6.8045    4.0277 H       1  UNL1        0.0000
     34 C           1.0148    5.3602    3.7349 C.ar    1  UNL1        0.0000
     35 H           1.5868    4.7464    3.0563 H       1  UNL1        0.0000
     36 C           1.7716    2.7060    5.8178 C.3     1  UNL1        0.0000
     37 H           0.9446    3.0758    6.4128 H       1  UNL1        0.0000
     38 H           2.4279    3.5466    5.6226 H       1  UNL1        0.0000
     39 H           2.3218    1.9865    6.4126 H       1  UNL1        0.0000
     40 C           2.6808    1.9000    2.9661 C.3     1  UNL1        0.0000
     41 H           2.4593    1.3046    2.0836 H       1  UNL1        0.0000
     42 H           3.5601    1.4877    3.4532 H       1  UNL1        0.0000
     43 H           2.9398    2.8921    2.6095 H       1  UNL1        0.0000
     44 C           1.2559   -0.4088    5.6251 C.ar    1  UNL1        0.0000
     45 C           2.4122   -1.1868    5.5261 C.ar    1  UNL1        0.0000
     46 C           2.9231   -1.7825    6.6725 C.ar    1  UNL1        0.0000
     47 H           3.8149   -2.3867    6.5932 H       1  UNL1        0.0000
     48 C           2.3106   -1.6087    7.8976 C.ar    1  UNL1        0.0000
     49 H           2.7180   -2.0785    8.7802 H       1  UNL1        0.0000
     50 C           1.1747   -0.8282    7.9848 C.ar    1  UNL1        0.0000
     51 H           0.6895   -0.6854    8.9392 H       1  UNL1        0.0000
     52 C           0.6328   -0.2176    6.8606 C.ar    1  UNL1        0.0000
     53 C           3.1376   -1.4058    4.2313 C.3     1  UNL1        0.0000
     54 H           2.6681   -0.8795    3.4074 H       1  UNL1        0.0000
     55 H           3.1648   -2.4702    3.9998 H       1  UNL1        0.0000
     56 H           4.1670   -1.0610    4.3233 H       1  UNL1        0.0000
     57 C          -0.6045    0.6102    7.0221 C.3     1  UNL1        0.0000
     58 H          -1.3828    0.0219    7.5068 H       1  UNL1        0.0000
     59 H          -0.9872    0.9679    6.0715 H       1  UNL1        0.0000
     60 H          -0.3976    1.4653    7.6637 H       1  UNL1        0.0000
     61 C           0.1369   -0.5378    3.5468 C.3     1  UNL1        0.0000
     62 C          -0.0857   -1.9750    3.8708 C.ar    1  UNL1        0.0000
     63 C           0.4822   -2.9645    3.0750 C.ar    1  UNL1        0.0000
     64 H           1.1185   -2.6879    2.2455 H       1  UNL1        0.0000
     65 C           0.2459   -4.2986    3.3540 C.ar    1  UNL1        0.0000
     66 H           0.7013   -5.0634    2.7423 H       1  UNL1        0.0000
     67 C          -0.5776   -4.6507    4.4101 C.ar    1  UNL1        0.0000
     68 H          -0.7608   -5.6926    4.6262 H       1  UNL1        0.0000
     69 C          -1.1778   -3.6654    5.1765 C.ar    1  UNL1        0.0000
     70 H          -1.8410   -3.9373    5.9835 H       1  UNL1        0.0000
     71 C          -0.9355   -2.3296    4.9127 C.ar    1  UNL1        0.0000
     72 H          -1.4270   -1.5571    5.4812 H       1  UNL1        0.0000
@<TRIPOS>BOND
     1    22    20    1
     2    14    13    1
     3    23    20    1
     4    20    21    1
     5    20    15    1
     6    13    15   ar
     7    13    11   ar
     8    15     7   ar
     9    12    11    1
    10     6     5    1
    11    11     9   ar
    12    41    40    1
    13    64    63    1
    14     5    61    1
    15     7     2    1
    16     7     8   ar
    17    43    40    1
    18     2    24    1
    19    66    65    1
    20     9     8   ar
    21     9    10    1
    22    40    42    1
    23    40     1    1
    24    35    34    1
    25     8    16    1
    26    63    65   ar
    27    63    62   ar
    28    65    67   ar
    29    54    53    1
    30    24     3    1
    31    24    25    1
    32    61    62    1
    33    61     4    1
    34     3     1    1
    35    19    16    1
    36    34    25   ar
    37    34    32   ar
    38    62    71   ar
    39    55    53    1
    40    16    17    1
    41    16    18    1
    42    33    32    1
    43    25    26   ar
    44     1     4    1
    45     1    36    1
    46    53    56    1
    47    53    45    1
    48    32    30   ar
    49    67    68    1
    50    67    69   ar
    51     4    44    1
    52    26    27    1
    53    26    28   ar
    54    71    69   ar
    55    71    72    1
    56    30    28   ar
    57    30    31    1
    58    69    70    1
    59    28    29    1
    60    45    44   ar
    61    45    46   ar
    62    38    36    1
    63    44    52   ar
    64    36    39    1
    65    36    37    1
    66    59    57    1
    67    47    46    1
    68    46    48   ar
    69    52    57    1
    70    52    50   ar
    71    57    58    1
    72    57    60    1
    73    48    50   ar
    74    48    49    1
    75    50    51    1
