@<TRIPOS>MOLECULE
1,2,4
 44 46 0 0 0
SMALL
GASTEIGER

@<TRIPOS>ATOM
      1 N           3.4915    2.4372    6.0513 N.pl3   1  UNL1        0.0000
      2 N           3.5073    4.9408    7.3876 N.pl3   1  UNL1        0.0000
      3 N           2.1886    4.6937    7.4916 N.3     1  UNL1        0.0000
      4 N           3.6327    2.5104    8.9243 N.pl3   1  UNL1        0.0000
      5 N           2.1739    2.5118    6.3150 N.3     1  UNL1        0.0000
      6 N           2.2964    2.5804    8.7951 N.3     1  UNL1        0.0000
      7 C           1.5024    5.8528    7.4973 C.3     1  UNL1        0.0000
      8 C           2.4219    6.8801    7.3868 C.2     1  UNL1        0.0000
      9 H           2.2162    7.9308    7.3586 H       1  UNL1        0.0000
     10 C           2.7013    1.5473   10.6962 C.2     1  UNL1        0.0000
     11 H           2.5780    1.0393   11.6310 H       1  UNL1        0.0000
     12 C           3.6726    6.2609    7.3218 C.2     1  UNL1        0.0000
     13 C           2.3849    1.3915    4.4321 C.2     1  UNL1        0.0000
     14 H           2.1685    0.8409    3.5393 H       1  UNL1        0.0000
     15 C           1.4749    1.8828    5.3503 C.3     1  UNL1        0.0000
     16 C           3.6432    1.7621    4.9130 C.2     1  UNL1        0.0000
     17 C           5.0102    6.8962    7.1929 C.3     1  UNL1        0.0000
     18 H           5.5727    6.7968    8.1214 H       1  UNL1        0.0000
     19 H           4.8988    7.9529    6.9639 H       1  UNL1        0.0000
     20 H           5.5843    6.4106    6.4020 H       1  UNL1        0.0000
     21 C           1.7009    2.0035    9.8552 C.3     1  UNL1        0.0000
     22 C           0.0233    5.9435    7.6075 C.3     1  UNL1        0.0000
     23 H          -0.4586    5.4312    6.7763 H       1  UNL1        0.0000
     24 H          -0.2766    6.9879    7.5974 H       1  UNL1        0.0000
     25 H          -0.3243    5.4866    8.5328 H       1  UNL1        0.0000
     26 C           3.9022    1.8881   10.0702 C.2     1  UNL1        0.0000
     27 B           1.6641    3.2502    7.5633 B       1  UNL1        0.0000
     28 C           5.2886    1.6319   10.5439 C.3     1  UNL1        0.0000
     29 H           5.8306    1.0098    9.8306 H       1  UNL1        0.0000
     30 H           5.2610    1.1229   11.5043 H       1  UNL1        0.0000
     31 H           5.8365    2.5681   10.6561 H       1  UNL1        0.0000
     32 C          -0.0068    1.7705    5.3347 C.3     1  UNL1        0.0000
     33 H          -0.3649    1.2527    6.2231 H       1  UNL1        0.0000
     34 H          -0.3176    1.2138    4.4548 H       1  UNL1        0.0000
     35 H          -0.4691    2.7560    5.3088 H       1  UNL1        0.0000
     36 C           4.9741    1.4934    4.3085 C.3     1  UNL1        0.0000
     37 H           5.5408    2.4209    4.2135 H       1  UNL1        0.0000
     38 H           4.8513    1.0436    3.3268 H       1  UNL1        0.0000
     39 H           5.5513    0.8150    4.9368 H       1  UNL1        0.0000
     40 C           0.2290    1.9049   10.0319 C.3     1  UNL1        0.0000
     41 H          -0.2248    2.8944   10.0556 H       1  UNL1        0.0000
     42 H           0.0102    1.3955   10.9665 H       1  UNL1        0.0000
     43 H          -0.2216    1.3466    9.2128 H       1  UNL1        0.0000
     44 H           0.4875    3.2260    7.6235 H       1  UNL1        0.0000
@<TRIPOS>BOND
     1    38    36    1
     2    14    13    1
     3    37    36    1
     4    36    16    1
     5    36    39    1
     6    13    16    2
     7    13    15    1
     8    34    32    1
     9    16     1    1
    10    35    32    1
    11    32    15    1
    12    32    33    1
    13    15     5    1
    14     1     5    1
    15     5    27    1
    16    20    17    1
    17    23    22    1
    18    19    17    1
    19    17    12    1
    20    17    18    1
    21    12     8    2
    22    12     2    1
    23     9     8    1
    24     8     7    1
    25     2     3    1
    26     3     7    1
    27     3    27    1
    28     7    22    1
    29    27    44    1
    30    27     6    1
    31    24    22    1
    32    22    25    1
    33     6     4    1
    34     6    21    1
    35     4    26    1
    36    43    40    1
    37    29    28    1
    38    21    40    1
    39    21    10    1
    40    40    41    1
    41    40    42    1
    42    26    28    1
    43    26    10    2
    44    28    31    1
    45    28    30    1
    46    10    11    1
