@<TRIPOS>MOLECULE
2,15,20
 35 38 0 0 0
SMALL
GASTEIGER

@<TRIPOS>ATOM
      1 N           0.3783    8.1625    7.6150 N.pl3   1  UNL1        0.0118
      2 N           1.8618    6.9068    9.0274 N.ar    1  UNL1       -0.1651
      3 C           6.0357    6.0687   12.2234 C.2     1  UNL1       -0.0332
      4 H           6.9664    6.3298   12.7009 H       1  UNL1        0.0615
      5 N           2.6625    4.9772   10.2106 N.pl3   1  UNL1        0.0118
      6 C           0.2328    5.7796    7.8106 C.ar    1  UNL1        0.0561
      7 C           2.5870   10.9407    7.7279 C.3     1  UNL1        0.1982
      8 H           3.6565   11.0997    7.8221 H       1  UNL1        0.0898
      9 C          -0.7926    5.4137    6.9628 C.ar    1  UNL1       -0.0483
     10 H          -1.3037    6.1513    6.3649 H       1  UNL1        0.0625
     11 C           4.0520    4.7671   12.0822 C.2     1  UNL1        0.0306
     12 H           3.3760    4.0012   12.4256 H       1  UNL1        0.0698
     13 C           0.5672    3.4968    8.5409 C.ar    1  UNL1       -0.0483
     14 H           1.0920    2.7746    9.1455 H       1  UNL1        0.0625
     15 N           4.5067    6.4432   10.4107 N.pl3   1  UNL1       -0.0383
     16 C           0.8547    7.0750    8.1193 C.ar    1  UNL1        0.2688
     17 C           0.3806   11.7482    7.3381 C.2     1  UNL1       -0.0540
     18 H          -0.3128   12.5547    7.1481 H       1  UNL1        0.0618
     19 C           1.9235    5.5776    9.3415 C.ar    1  UNL1        0.2688
     20 N           2.1813    9.6747    7.8712 N.pl3   1  UNL1       -0.0383
     21 C           0.9040    4.8341    8.5880 C.ar    1  UNL1        0.0561
     22 C           0.8683    9.4185    7.6879 C.2     1  UNL1        0.3446
     23 C           5.2004    5.0880   12.7580 C.2     1  UNL1       -0.0540
     24 H           5.4646    4.5800   13.6738 H       1  UNL1        0.0618
     25 C          -0.0568   10.4527    7.4334 C.2     1  UNL1        0.0306
     26 H          -1.0942   10.1852    7.3163 H       1  UNL1        0.0698
     27 C          -0.4646    3.1269    7.6873 C.ar    1  UNL1       -0.0610
     28 H          -0.7546    2.0883    7.6230 H       1  UNL1        0.0618
     29 C          -1.1312    4.0672    6.9126 C.ar    1  UNL1       -0.0610
     30 H          -1.9274    3.7437    6.2582 H       1  UNL1        0.0618
     31 C           1.7463   12.0002    7.4658 C.2     1  UNL1       -0.0332
     32 H           2.1406   12.9983    7.3637 H       1  UNL1        0.0615
     33 C           5.6444    6.7029   11.0650 C.3     1  UNL1        0.1982
     34 H           6.2764    7.4626   10.6164 H       1  UNL1        0.0898
     35 C           3.7250    5.4529   10.8930 C.2     1  UNL1        0.3446
@<TRIPOS>BOND
     1    30    29    1
     2    10     9    1
     3    29     9   ar
     4    29    27   ar
     5     9     6   ar
     6    18    17    1
     7    26    25    1
     8    17    25    1
     9    17    31    2
    10    32    31    1
    11    25    22    2
    12    31     7    1
    13     1    22    1
    14     1    16    1
    15    28    27    1
    16    27    13   ar
    17    22    20    1
    18     7     8    1
    19     7    20    1
    20     6    16   ar
    21     6    21   ar
    22    16     2   ar
    23    13    21   ar
    24    13    14    1
    25    21    19   ar
    26     2    19   ar
    27    19     5    1
    28     5    35    1
    29    15    35    1
    30    15    33    1
    31    34    33    1
    32    35    11    2
    33    33     3    1
    34    11    12    1
    35    11    23    1
    36     3     4    1
    37     3    23    2
    38    23    24    1
