@<TRIPOS>MOLECULE
1,3,4
 59 60 0 0 0
SMALL
GASTEIGER

@<TRIPOS>ATOM
      1 N           5.7297    5.5126    3.0246 N.3     1  UNL1       -0.3023
      2 C           5.3144    4.9800    4.3201 C.3     1  UNL1       -0.0126
      3 N           7.9254    6.2835    1.3386 N.pl3   1  UNL1       -0.2489
      4 N           5.2865    8.3178    2.6260 N.pl3   1  UNL1       -0.2489
      5 C           9.1392    6.4300    0.6598 C.ar    1  UNL1        0.0536
      6 C          10.2316    5.5506    0.8147 C.ar    1  UNL1       -0.0274
      7 C          10.1738    4.3701    1.7431 C.3     1  UNL1       -0.0379
      8 C          11.4160    5.7937    0.1344 C.ar    1  UNL1       -0.0541
      9 C          12.8657    7.1251   -1.4370 C.3     1  UNL1       -0.0397
     10 C          11.5777    6.8815   -0.7072 C.ar    1  UNL1       -0.0498
     11 C          10.4955    7.7363   -0.8749 C.ar    1  UNL1       -0.0541
     12 C           9.2929    7.5211   -0.2263 C.ar    1  UNL1       -0.0274
     13 C           8.1228    8.4212   -0.5125 C.3     1  UNL1       -0.0379
     14 C           7.2036    5.0538    1.0549 C.3     1  UNL1        0.0442
     15 C           6.4649    4.4839    2.2794 C.3     1  UNL1        0.0161
     16 C           4.9672    9.6324    3.0253 C.ar    1  UNL1        0.0536
     17 C           4.6815    9.9830    4.3618 C.ar    1  UNL1       -0.0274
     18 C           4.7066    8.9628    5.4639 C.3     1  UNL1       -0.0379
     19 C           4.4139   11.3033    4.6833 C.ar    1  UNL1       -0.0541
     20 C           4.4024   12.3095    3.7269 C.ar    1  UNL1       -0.0498
     21 C           4.1129   13.7282    4.1193 C.3     1  UNL1       -0.0397
     22 C           4.6571   11.9577    2.4117 C.ar    1  UNL1       -0.0541
     23 C           4.9235   10.6456    2.0492 C.ar    1  UNL1       -0.0274
     24 C           5.1306   10.3146    0.5980 C.3     1  UNL1       -0.0379
     25 C           4.1560    7.4047    2.7200 C.3     1  UNL1        0.0442
     26 C           4.5614    5.9942    2.2750 C.3     1  UNL1        0.0161
     27 H           4.6966    4.0769    4.2006 H       1  UNL1        0.0391
     28 H           4.7336    5.7270    4.8582 H       1  UNL1        0.0391
     29 H           6.1924    4.7332    4.9174 H       1  UNL1        0.0391
     30 H          11.1604    4.1752    2.1591 H       1  UNL1        0.0278
     31 H           9.8552    3.4679    1.2175 H       1  UNL1        0.0278
     32 H           9.4825    4.5642    2.5601 H       1  UNL1        0.0278
     33 H          12.2442    5.1122    0.2785 H       1  UNL1        0.0623
     34 H          13.6607    6.4989   -1.0393 H       1  UNL1        0.0278
     35 H          13.1667    8.1684   -1.3521 H       1  UNL1        0.0278
     36 H          12.7495    6.8975   -2.4972 H       1  UNL1        0.0278
     37 H          10.5901    8.5789   -1.5484 H       1  UNL1        0.0623
     38 H           8.4465    9.3148   -1.0434 H       1  UNL1        0.0278
     39 H           7.6097    8.7059    0.4130 H       1  UNL1        0.0278
     40 H           7.4013    7.8942   -1.1386 H       1  UNL1        0.0278
     41 H           7.8692    4.2705    0.6704 H       1  UNL1        0.0494
     42 H           6.4657    5.2420    0.2493 H       1  UNL1        0.0494
     43 H           5.7866    3.6773    1.9530 H       1  UNL1        0.0442
     44 H           7.2025    4.0547    2.9636 H       1  UNL1        0.0442
     45 H           4.9702    9.4402    6.4044 H       1  UNL1        0.0278
     46 H           5.4459    8.1843    5.2506 H       1  UNL1        0.0278
     47 H           3.7251    8.5006    5.5891 H       1  UNL1        0.0278
     48 H           4.2127   11.5589    5.7153 H       1  UNL1        0.0623
     49 H           4.1778   14.3898    3.2590 H       1  UNL1        0.0278
     50 H           4.8215   14.0678    4.8741 H       1  UNL1        0.0278
     51 H           3.1124   13.8093    4.5432 H       1  UNL1        0.0278
     52 H           4.6339   12.7173    1.6413 H       1  UNL1        0.0623
     53 H           4.2683   10.6407    0.0170 H       1  UNL1        0.0278
     54 H           5.2542    9.2399    0.4805 H       1  UNL1        0.0278
     55 H           6.0089   10.8234    0.2022 H       1  UNL1        0.0278
     56 H           3.3482    7.7494    2.0485 H       1  UNL1        0.0494
     57 H           3.7166    7.3573    3.7307 H       1  UNL1        0.0494
     58 H           3.7102    5.3046    2.3907 H       1  UNL1        0.0442
     59 H           4.8295    6.0456    1.2185 H       1  UNL1        0.0442
@<TRIPOS>BOND
     1    36     9    1
     2    37    11    1
     3     9    35    1
     4     9    34    1
     5     9    10    1
     6    40    13    1
     7    38    13    1
     8    11    10   ar
     9    11    12   ar
    10    10     8   ar
    11    13    12    1
    12    13    39    1
    13    12     5   ar
    14    53    24    1
    15     8    33    1
    16     8     6   ar
    17    55    24    1
    18    42    14    1
    19    54    24    1
    20    24    23    1
    21     5     6   ar
    22     5     3    1
    23    41    14    1
    24     6     7    1
    25    14     3    1
    26    14    15    1
    27    31     7    1
    28    59    26    1
    29    52    22    1
    30     7    30    1
    31     7    32    1
    32    43    15    1
    33    56    25    1
    34    23    22   ar
    35    23    16   ar
    36    26    58    1
    37    26    25    1
    38    26     1    1
    39    15    44    1
    40    15     1    1
    41    22    20   ar
    42     4    25    1
    43     4    16    1
    44    25    57    1
    45     1     2    1
    46    16    17   ar
    47    49    21    1
    48    20    21    1
    49    20    19   ar
    50    21    51    1
    51    21    50    1
    52    27     2    1
    53     2    28    1
    54     2    29    1
    55    17    19   ar
    56    17    18    1
    57    19    48    1
    58    46    18    1
    59    18    47    1
    60    18    45    1
