@<TRIPOS>MOLECULE
1,2,3
 57 58 0 0 0
SMALL
GASTEIGER

@<TRIPOS>ATOM
      1 N           1.3770    4.1710   14.0124 N.3     1  UNL1        0.0000
      2 N          -0.5705    5.8267   14.0861 N.3     1  UNL1        0.0000
      3 N           2.8337    5.7491   13.3504 N.3     1  UNL1        0.0000
      4 SI         -0.4006    7.2425   15.0006 Si      1  UNL1        0.0000
      5 SI          4.4204    6.3888   13.1474 Si      1  UNL1        0.0000
      6 C           3.1172    4.8301   15.6108 C.ar    1  UNL1        0.0000
      7 C           3.3860    5.9841   16.3389 C.ar    1  UNL1        0.0000
      8 H           3.0772    6.9372   15.9392 H       1  UNL1        0.0000
      9 C           4.0291    5.9041   17.5606 C.ar    1  UNL1        0.0000
     10 H           4.2251    6.8037   18.1256 H       1  UNL1        0.0000
     11 C           4.4221    4.6728   18.0597 C.ar    1  UNL1        0.0000
     12 H           4.9276    4.6115   19.0120 H       1  UNL1        0.0000
     13 C           4.1677    3.5210   17.3337 C.ar    1  UNL1        0.0000
     14 H           4.4799    2.5608   17.7174 H       1  UNL1        0.0000
     15 C           3.5119    3.5963   16.1182 C.ar    1  UNL1        0.0000
     16 H           3.3168    2.7020   15.5445 H       1  UNL1        0.0000
     17 C           2.4307    4.9135   14.2976 C.3     1  UNL1        0.0000
     18 C           0.4434    3.8426   15.0748 C.3     1  UNL1        0.0000
     19 H           0.7688    4.3152   16.0168 H       1  UNL1        0.0000
     20 C           0.1827    2.3642   15.3558 C.3     1  UNL1        0.0000
     21 H           1.1072    1.8618   15.6478 H       1  UNL1        0.0000
     22 H          -0.2026    1.8743   14.4604 H       1  UNL1        0.0000
     23 C          -0.8453    2.2633   16.4838 C.3     1  UNL1        0.0000
     24 H          -0.4232    2.7024   17.3913 H       1  UNL1        0.0000
     25 H          -1.0609    1.2129   16.6911 H       1  UNL1        0.0000
     26 C          -2.1416    2.9920   16.1279 C.3     1  UNL1        0.0000
     27 H          -2.8359    2.9299   16.9687 H       1  UNL1        0.0000
     28 H          -2.6075    2.4985   15.2722 H       1  UNL1        0.0000
     29 C          -1.8815    4.4563   15.7766 C.3     1  UNL1        0.0000
     30 H          -2.8067    4.9488   15.4752 H       1  UNL1        0.0000
     31 H          -1.4794    4.9877   16.6394 H       1  UNL1        0.0000
     32 C          -0.8794    4.5229   14.6246 C.3     1  UNL1        0.0000
     33 H          -1.2978    3.9106   13.8025 H       1  UNL1        0.0000
     34 C           0.1925    7.2058   16.8375 C.3     1  UNL1        0.0000
     35 H          -0.6513    7.0552   17.5036 H       1  UNL1        0.0000
     36 H           0.6590    8.1434   17.1250 H       1  UNL1        0.0000
     37 H           0.9073    6.4121   17.0331 H       1  UNL1        0.0000
     38 C          -2.0029    8.3071   15.0972 C.3     1  UNL1        0.0000
     39 H          -2.4456    8.4753   14.1215 H       1  UNL1        0.0000
     40 H          -1.7961    9.2760   15.5395 H       1  UNL1        0.0000
     41 H          -2.7527    7.8236   15.7146 H       1  UNL1        0.0000
     42 C           0.9200    8.2675   14.0180 C.3     1  UNL1        0.0000
     43 H           1.7145    8.6200   14.6692 H       1  UNL1        0.0000
     44 H           0.4724    9.1483   13.5645 H       1  UNL1        0.0000
     45 H           1.3730    7.6467   13.2254 H       1  UNL1        0.0000
     46 C           4.5385    8.2471   13.6186 C.3     1  UNL1        0.0000
     47 H           3.7374    8.8337   13.1783 H       1  UNL1        0.0000
     48 H           5.4765    8.6548   13.2552 H       1  UNL1        0.0000
     49 H           4.5159    8.4070   14.6921 H       1  UNL1        0.0000
     50 C           5.8151    5.4657   14.0815 C.3     1  UNL1        0.0000
     51 H           5.8422    5.7198   15.1359 H       1  UNL1        0.0000
     52 H           6.7836    5.7163   13.6603 H       1  UNL1        0.0000
     53 H           5.6955    4.3891   14.0088 H       1  UNL1        0.0000
     54 C           4.8357    6.2663   11.2891 C.3     1  UNL1        0.0000
     55 H           4.6935    5.2519   10.9304 H       1  UNL1        0.0000
     56 H           5.8642    6.5547   11.0952 H       1  UNL1        0.0000
     57 H           4.1924    6.9207   10.7108 H       1  UNL1        0.0000
@<TRIPOS>BOND
     1    57    54    1
     2    55    54    1
     3    56    54    1
     4    54     5    1
     5     5     3    1
     6     5    46    1
     7     5    50    1
     8    47    46    1
     9    45    42    1
    10    48    46    1
    11     3    17    1
    12    44    42    1
    13    46    49    1
    14    52    50    1
    15    33    32    1
    16    53    50    1
    17     1    17    1
    18     1    18    1
    19    42    43    1
    20    42     4    1
    21    50    51    1
    22     2    32    1
    23     2     4    1
    24    39    38    1
    25    17     6    1
    26    22    20    1
    27    32    18    1
    28    32    29    1
    29     4    38    1
    30     4    34    1
    31    18    20    1
    32    18    19    1
    33    38    40    1
    34    38    41    1
    35    28    26    1
    36    20    21    1
    37    20    23    1
    38    30    29    1
    39    16    15    1
    40     6    15   ar
    41     6     7   ar
    42    29    26    1
    43    29    31    1
    44     8     7    1
    45    15    13   ar
    46    26    23    1
    47    26    27    1
    48     7     9   ar
    49    23    25    1
    50    23    24    1
    51    34    37    1
    52    34    36    1
    53    34    35    1
    54    13    14    1
    55    13    11   ar
    56     9    11   ar
    57     9    10    1
    58    11    12    1
