@<TRIPOS>MOLECULE
1,2,3
 45 44 0 0 0
SMALL
GASTEIGER

@<TRIPOS>ATOM
      1 N          13.9683    5.8857   11.2784 N.3     1  UNL1        0.0000
      2 N          13.0564    6.2524    8.8889 N.3     1  UNL1        0.0000
      3 N          11.4566    5.5761   12.1894 N.3     1  UNL1        0.0000
      4 C          13.7268    7.2966   10.9830 C.3     1  UNL1        0.0000
      5 C          13.5566    7.4727    9.4622 C.3     1  UNL1        0.0000
      6 C          13.8740    5.6223   12.7067 C.3     1  UNL1        0.0000
      7 C          12.4443    5.8822   13.2061 C.3     1  UNL1        0.0000
      8 C          15.2685    5.4638   10.7754 C.3     1  UNL1        0.0000
      9 C          11.7823    7.0498    6.2317 C.3     1  UNL1        0.0000
     10 C          12.9480    4.2080    6.8222 C.3     1  UNL1        0.0000
     11 C          14.7832    6.7290    6.4564 C.3     1  UNL1        0.0000
     12 C           8.6082    4.8480   11.5130 C.3     1  UNL1        0.0000
     13 C           9.2300    7.4736   13.0078 C.3     1  UNL1        0.0000
     14 C           9.5877    4.8206   14.4458 C.3     1  UNL1        0.0000
     15 SI         13.1352    6.0626    7.1990 Si      1  UNL1        0.0000
     16 SI          9.8411    5.6545   12.7294 Si      1  UNL1        0.0000
     17 H          14.5933    6.2455   13.2707 H       1  UNL1        0.0000
     18 H          14.1332    4.5703   12.8545 H       1  UNL1        0.0000
     19 H          12.2897    5.2759   14.1119 H       1  UNL1        0.0000
     20 H          12.3612    6.9359   13.5384 H       1  UNL1        0.0000
     21 H           7.7691    4.4308   12.0590 H       1  UNL1        0.0000
     22 H           8.1932    5.5700   10.8171 H       1  UNL1        0.0000
     23 H           9.0811    4.0512   10.9453 H       1  UNL1        0.0000
     24 H           9.9311    8.0353   13.6201 H       1  UNL1        0.0000
     25 H           8.2743    7.4908   13.5219 H       1  UNL1        0.0000
     26 H           9.1018    8.0164   12.0743 H       1  UNL1        0.0000
     27 H          10.0471    3.8377   14.4770 H       1  UNL1        0.0000
     28 H           8.5353    4.6997   14.6820 H       1  UNL1        0.0000
     29 H          10.0287    5.4161   15.2396 H       1  UNL1        0.0000
     30 H          14.5538    7.9243   11.3623 H       1  UNL1        0.0000
     31 H          12.8027    7.5974   11.4878 H       1  UNL1        0.0000
     32 H          14.5264    7.7570    9.0176 H       1  UNL1        0.0000
     33 H          12.8836    8.3342    9.2752 H       1  UNL1        0.0000
     34 H          13.8365    3.7930    6.3615 H       1  UNL1        0.0000
     35 H          12.7543    3.6700    7.7492 H       1  UNL1        0.0000
     36 H          12.1258    4.0391    6.1396 H       1  UNL1        0.0000
     37 H          11.9929    7.0654    5.1669 H       1  UNL1        0.0000
     38 H          11.7308    8.0836    6.5649 H       1  UNL1        0.0000
     39 H          10.7945    6.6155    6.3609 H       1  UNL1        0.0000
     40 H          14.8030    7.8149    6.4606 H       1  UNL1        0.0000
     41 H          14.9001    6.4100    5.4261 H       1  UNL1        0.0000
     42 H          15.6546    6.3806    7.0034 H       1  UNL1        0.0000
     43 H          16.0813    6.0094   11.2811 H       1  UNL1        0.0000
     44 H          15.3916    4.3936   10.9468 H       1  UNL1        0.0000
     45 H          15.3203    5.6501    9.7039 H       1  UNL1        0.0000
@<TRIPOS>BOND
     1    37     9    1
     2    41    11    1
     3    36    10    1
     4     9    39    1
     5     9    38    1
     6     9    15    1
     7    34    10    1
     8    11    40    1
     9    11    42    1
    10    11    15    1
    11    10    15    1
    12    10    35    1
    13    15     2    1
    14     2     5    1
    15    32     5    1
    16    33     5    1
    17     5     4    1
    18    45     8    1
    19     8    44    1
    20     8     1    1
    21     8    43    1
    22    22    12    1
    23    23    12    1
    24     4     1    1
    25     4    30    1
    26     4    31    1
    27     1     6    1
    28    12    21    1
    29    12    16    1
    30    26    13    1
    31     3    16    1
    32     3     7    1
    33     6    18    1
    34     6     7    1
    35     6    17    1
    36    16    13    1
    37    16    14    1
    38    13    25    1
    39    13    24    1
    40     7    20    1
    41     7    19    1
    42    14    27    1
    43    14    28    1
    44    14    29    1
