@<TRIPOS>MOLECULE
5,6,7
 77 79 0 0 0
SMALL
GASTEIGER

@<TRIPOS>ATOM
      1 SI         -2.4378    3.8227    7.5694 Si      1  UNL1        0.0000
      2 SI         -3.7308    4.0104    4.0355 Si      1  UNL1        0.0000
      3 SI         -2.5831    0.7141    5.4516 Si      1  UNL1        0.0000
      4 SI         -3.8266    2.6721    6.0067 Si      1  UNL1        0.0000
      5 N          -1.2276    4.2831    6.4120 N.pl3   1  UNL1        0.0000
      6 N          -2.0809    3.6241    3.6575 N.pl3   1  UNL1        0.0000
      7 N          -1.0363    1.5021    5.4266 N.pl3   1  UNL1        0.0000
      8 C          -0.5312    5.4771    6.4273 C.ar    1  UNL1        0.0000
      9 C          -0.3990    6.2224    5.2424 C.ar    1  UNL1        0.0000
     10 C           0.3099    7.4080    5.2279 C.ar    1  UNL1        0.0000
     11 C           0.9029    7.9064    6.3815 C.ar    1  UNL1        0.0000
     12 C           0.7640    7.1774    7.5572 C.ar    1  UNL1        0.0000
     13 C           0.0639    5.9891    7.5861 C.ar    1  UNL1        0.0000
     14 C           1.6864    9.1839    6.3638 C.3     1  UNL1        0.0000
     15 C          -1.5628    3.4988    2.3821 C.ar    1  UNL1        0.0000
     16 C          -1.8006    4.4380    1.3739 C.ar    1  UNL1        0.0000
     17 C          -1.2440    4.2880    0.1184 C.ar    1  UNL1        0.0000
     18 C          -0.4318    3.2043   -0.1851 C.ar    1  UNL1        0.0000
     19 C          -0.1977    2.2598    0.8102 C.ar    1  UNL1        0.0000
     20 C          -0.7515    2.3925    2.0668 C.ar    1  UNL1        0.0000
     21 C           0.1911    3.0448   -1.5389 C.3     1  UNL1        0.0000
     22 C           0.1589    0.9231    5.8106 C.ar    1  UNL1        0.0000
     23 C           0.5579   -0.3459    5.3753 C.ar    1  UNL1        0.0000
     24 C           1.7695   -0.8794    5.7641 C.ar    1  UNL1        0.0000
     25 C           2.6335   -0.1787    6.5979 C.ar    1  UNL1        0.0000
     26 C           2.2411    1.0787    7.0409 C.ar    1  UNL1        0.0000
     27 C           1.0284    1.6233    6.6654 C.ar    1  UNL1        0.0000
     28 C           3.9589   -0.7609    6.9859 C.3     1  UNL1        0.0000
     29 C          -5.6079    2.3195    6.6391 C.3     1  UNL1        0.0000
     30 C          -3.1533    5.3717    8.4473 C.3     1  UNL1        0.0000
     31 C          -1.7121    2.6748    8.9362 C.3     1  UNL1        0.0000
     32 C          -3.9702    5.8919    4.3762 C.3     1  UNL1        0.0000
     33 C          -4.8813    3.5473    2.5721 C.3     1  UNL1        0.0000
     34 C          -2.5803   -0.7354    6.7081 C.3     1  UNL1        0.0000
     35 C          -3.0426   -0.0230    3.7312 C.3     1  UNL1        0.0000
     36 H           1.2191    7.5459    8.4660 H       1  UNL1        0.0000
     37 H           1.5372    9.7166    5.4281 H       1  UNL1        0.0000
     38 H           2.7504    8.9726    6.4711 H       1  UNL1        0.0000
     39 H           1.3897    9.8305    7.1883 H       1  UNL1        0.0000
     40 H          -1.4403    5.0354   -0.6377 H       1  UNL1        0.0000
     41 H           0.4311    1.4075    0.5937 H       1  UNL1        0.0000
     42 H          -0.1300    3.8368   -2.2106 H       1  UNL1        0.0000
     43 H          -0.0817    2.0847   -1.9754 H       1  UNL1        0.0000
     44 H           1.2772    3.0774   -1.4585 H       1  UNL1        0.0000
     45 H           2.0556   -1.8589    5.4069 H       1  UNL1        0.0000
     46 H           2.8953    1.6429    7.6906 H       1  UNL1        0.0000
     47 H           4.4010   -0.2044    7.8084 H       1  UNL1        0.0000
     48 H           4.6457   -0.7225    6.1401 H       1  UNL1        0.0000
     49 H           3.8518   -1.8031    7.2823 H       1  UNL1        0.0000
     50 H          -5.5956    1.7042    7.5313 H       1  UNL1        0.0000
     51 H          -6.1956    1.7989    5.8919 H       1  UNL1        0.0000
     52 H          -2.4893    5.7606    9.2129 H       1  UNL1        0.0000
     53 H          -4.0954    5.1265    8.9249 H       1  UNL1        0.0000
     54 H          -2.5055    2.2930    9.5710 H       1  UNL1        0.0000
     55 H          -0.9942    3.1776    9.5806 H       1  UNL1        0.0000
     56 H          -4.9706    6.0837    4.7514 H       1  UNL1        0.0000
     57 H          -3.8319    6.5087    3.4908 H       1  UNL1        0.0000
     58 H          -4.6939    2.5332    2.2337 H       1  UNL1        0.0000
     59 H          -4.7554    4.2052    1.7179 H       1  UNL1        0.0000
     60 H          -1.9286   -1.5492    6.4057 H       1  UNL1        0.0000
     61 H          -3.5820   -1.1368    6.8142 H       1  UNL1        0.0000
     62 H          -4.0728   -0.3652    3.7305 H       1  UNL1        0.0000
     63 H          -2.4202   -0.8684    3.4465 H       1  UNL1        0.0000
     64 H          -0.8733    5.8586    4.3258 H       1  UNL1        0.0000
     65 H          -0.0228    5.4273    8.5062 H       1  UNL1        0.0000
     66 H          -2.4177    5.2970    1.6000 H       1  UNL1        0.0000
     67 H          -0.5681    1.6298    2.8298 H       1  UNL1        0.0000
     68 H          -0.0963   -0.8967    4.7129 H       1  UNL1        0.0000
     69 H           0.7311    2.6079    7.0394 H       1  UNL1        0.0000
     70 H          -3.3394    6.1723    7.7384 H       1  UNL1        0.0000
     71 H          -1.2094    1.8215    8.4866 H       1  UNL1        0.0000
     72 H          -3.2644    6.2344    5.1297 H       1  UNL1        0.0000
     73 H          -5.9187    3.6058    2.8821 H       1  UNL1        0.0000
     74 H          -2.2528   -0.4016    7.6874 H       1  UNL1        0.0000
     75 H          -2.9462    0.7335    2.9554 H       1  UNL1        0.0000
     76 H          -6.1296    3.2377    6.8829 H       1  UNL1        0.0000
     77 H           0.4028    7.9561    4.3008 H       1  UNL1        0.0000
@<TRIPOS>BOND
     1    42    21    1
     2    43    21    1
     3    21    44    1
     4    21    18    1
     5    40    17    1
     6    18    17   ar
     7    18    19   ar
     8    17    16   ar
     9    41    19    1
    10    19    20   ar
    11    16    66    1
    12    16    15   ar
    13    59    33    1
    14    20    15   ar
    15    20    67    1
    16    58    33    1
    17    15     6    1
    18    33    73    1
    19    33     2    1
    20    75    35    1
    21    63    35    1
    22    57    32    1
    23     6     2    1
    24    62    35    1
    25    35     3    1
    26     2    32    1
    27     2     4    1
    28    77    10    1
    29    64     9    1
    30    32    56    1
    31    32    72    1
    32    68    23    1
    33    10     9   ar
    34    10    11   ar
    35     9     8   ar
    36    23    24   ar
    37    23    22   ar
    38    45    24    1
    39     7     3    1
    40     7    22    1
    41    37    14    1
    42     3     4    1
    43     3    34    1
    44    24    25   ar
    45    22    27   ar
    46    51    29    1
    47     4    29    1
    48     4     1    1
    49    48    28    1
    50    14    11    1
    51    14    38    1
    52    14    39    1
    53    11    12   ar
    54    60    34    1
    55     5     8    1
    56     5     1    1
    57     8    13   ar
    58    25    28    1
    59    25    26   ar
    60    29    76    1
    61    29    50    1
    62    27    69    1
    63    27    26   ar
    64    34    61    1
    65    34    74    1
    66    28    49    1
    67    28    47    1
    68    26    46    1
    69    12    13   ar
    70    12    36    1
    71     1    30    1
    72     1    31    1
    73    13    65    1
    74    70    30    1
    75    30    53    1
    76    30    52    1
    77    71    31    1
    78    31    54    1
    79    31    55    1
