@<TRIPOS>MOLECULE
1,2,3
 45 44 0 0 0
SMALL
GASTEIGER

@<TRIPOS>ATOM
      1 N           1.9267   11.1764    1.8510 N.3     1  UNL1        0.0000
      2 N           2.9454   10.3481    4.8635 N.3     1  UNL1        0.0000
      3 N           2.4643    8.7300    2.8549 N.3     1  UNL1        0.0000
      4 C           3.0886   10.5293    1.2899 C.3     1  UNL1        0.0000
      5 C           3.5930    9.4198    2.2237 C.3     1  UNL1        0.0000
      6 C           3.0552    8.9689    5.2537 C.3     1  UNL1        0.0000
      7 C           2.9139    8.0029    4.0400 C.3     1  UNL1        0.0000
      8 C           1.8308    7.8375    1.8925 C.3     1  UNL1        0.0000
      9 C           1.9114   14.2661    1.6752 C.3     1  UNL1        0.0000
     10 C           1.7304   12.4564   -0.8277 C.3     1  UNL1        0.0000
     11 C          -0.6245   12.6390    1.1157 C.3     1  UNL1        0.0000
     12 C           5.8042   11.1182    5.4057 C.3     1  UNL1        0.0000
     13 C           3.6403   11.8211    7.4560 C.3     1  UNL1        0.0000
     14 C           3.5557   13.0939    4.5205 C.3     1  UNL1        0.0000
     15 SI          1.2917   12.5677    1.0439 Si      1  UNL1        0.0000
     16 SI          3.9318   11.5558    5.5738 Si      1  UNL1        0.0000
     17 H           3.9218   11.2343    1.1255 H       1  UNL1        0.0000
     18 H           2.8496   10.1023    0.3004 H       1  UNL1        0.0000
     19 H           4.1891    9.8789    3.0175 H       1  UNL1        0.0000
     20 H           4.2242    8.7050    1.6650 H       1  UNL1        0.0000
     21 H           4.0218    8.7713    5.7406 H       1  UNL1        0.0000
     22 H           2.2825    8.7161    6.0041 H       1  UNL1        0.0000
     23 H           2.1829    7.2213    4.2734 H       1  UNL1        0.0000
     24 H           3.8748    7.5013    3.8379 H       1  UNL1        0.0000
     25 H           0.9900    7.3116    2.3502 H       1  UNL1        0.0000
     26 H           1.4577    8.4172    1.0473 H       1  UNL1        0.0000
     27 H           2.5415    7.0857    1.5143 H       1  UNL1        0.0000
     28 H           1.4972   15.0753    1.0808 H       1  UNL1        0.0000
     29 H           1.5871   14.4072    2.7027 H       1  UNL1        0.0000
     30 H           2.9930   14.3631    1.6448 H       1  UNL1        0.0000
     31 H           1.2723   13.2704   -1.3781 H       1  UNL1        0.0000
     32 H           2.8018   12.5213   -0.9854 H       1  UNL1        0.0000
     33 H           1.3879   11.5287   -1.2771 H       1  UNL1        0.0000
     34 H          -0.9528   13.6105    0.7624 H       1  UNL1        0.0000
     35 H          -0.9666   12.5345    2.1407 H       1  UNL1        0.0000
     36 H          -1.1194   11.8946    0.4974 H       1  UNL1        0.0000
     37 H           6.4191   11.8597    5.9041 H       1  UNL1        0.0000
     38 H           6.1217   11.0776    4.3671 H       1  UNL1        0.0000
     39 H           6.0345   10.1573    5.8578 H       1  UNL1        0.0000
     40 H           3.9379   12.8161    7.7716 H       1  UNL1        0.0000
     41 H           2.5922   11.6911    7.7065 H       1  UNL1        0.0000
     42 H           4.2084   11.1085    8.0478 H       1  UNL1        0.0000
     43 H           4.2303   13.9161    4.7346 H       1  UNL1        0.0000
     44 H           2.5379   13.4365    4.6916 H       1  UNL1        0.0000
     45 H           3.6384   12.8439    3.4629 H       1  UNL1        0.0000
@<TRIPOS>BOND
     1    31    10    1
     2    33    10    1
     3    32    10    1
     4    10    15    1
     5    18     4    1
     6    36    11    1
     7    34    11    1
     8    15    11    1
     9    15     9    1
    10    15     1    1
    11    26     8    1
    12    28     9    1
    13    11    35    1
    14    17     4    1
    15     4     1    1
    16     4     5    1
    17    27     8    1
    18    30     9    1
    19    20     5    1
    20     9    29    1
    21     8    25    1
    22     8     3    1
    23     5     3    1
    24     5    19    1
    25     3     7    1
    26    45    14    1
    27    24     7    1
    28     7    23    1
    29     7     6    1
    30    38    12    1
    31    14    44    1
    32    14    43    1
    33    14    16    1
    34     2     6    1
    35     2    16    1
    36     6    21    1
    37     6    22    1
    38    12    16    1
    39    12    39    1
    40    12    37    1
    41    16    13    1
    42    13    41    1
    43    13    40    1
    44    13    42    1
