@<TRIPOS>MOLECULE
1,3,5
 44 46 0 0 0
SMALL
GASTEIGER

@<TRIPOS>ATOM
      1 N          17.6107    5.7572    1.0228 N.ar    1  UNL1        0.0000
      2 N          17.8106    5.7696   -0.3200 N.ar    1  UNL1        0.0000
      3 N          20.3386    4.9358    0.9047 N.ar    1  UNL1        0.0000
      4 N          20.2657    5.2896   -0.4074 N.ar    1  UNL1        0.0000
      5 N          19.3635    7.7842    1.0335 N.ar    1  UNL1        0.0000
      6 N          19.4098    7.6217   -0.3130 N.ar    1  UNL1        0.0000
      7 B          19.1633    6.2293   -0.9075 B       1  UNL1        0.0000
      8 H          19.1277    6.2550   -2.0830 H       1  UNL1        0.0000
      9 C          16.3061    5.5661    1.2391 C.ar    1  UNL1        0.0000
     10 C          15.6551    5.4394    0.0088 C.ar    1  UNL1        0.0000
     11 H          14.6090    5.2766   -0.1522 H       1  UNL1        0.0000
     12 C          16.6373    5.5760   -0.9552 C.ar    1  UNL1        0.0000
     13 C          15.7221    5.5048    2.6033 C.3     1  UNL1        0.0000
     14 H          16.3086    6.1400    3.2786 H       1  UNL1        0.0000
     15 H          15.7472    4.4851    2.9907 H       1  UNL1        0.0000
     16 H          14.6876    5.8393    2.5833 H       1  UNL1        0.0000
     17 C          16.4907    5.5230   -2.4325 C.3     1  UNL1        0.0000
     18 H          17.1317    4.7532   -2.8578 H       1  UNL1        0.0000
     19 H          16.7610    6.4773   -2.8815 H       1  UNL1        0.0000
     20 H          15.4578    5.2990   -2.6845 H       1  UNL1        0.0000
     21 C          21.3290    4.0333    1.0126 C.ar    1  UNL1        0.0000
     22 C          21.9056    3.8311   -0.2409 C.ar    1  UNL1        0.0000
     23 H          22.7243    3.1821   -0.4732 H       1  UNL1        0.0000
     24 C          21.2111    4.6467   -1.1154 C.ar    1  UNL1        0.0000
     25 C          21.6989    3.3344    2.2708 C.3     1  UNL1        0.0000
     26 H          20.8493    2.7726    2.6603 H       1  UNL1        0.0000
     27 H          22.0267    4.0287    3.0449 H       1  UNL1        0.0000
     28 H          22.5116    2.6414    2.0670 H       1  UNL1        0.0000
     29 C          21.4315    4.8366   -2.5708 C.3     1  UNL1        0.0000
     30 H          21.6624    5.8780   -2.7873 H       1  UNL1        0.0000
     31 H          20.5462    4.5587   -3.1391 H       1  UNL1        0.0000
     32 H          22.2645    4.2178   -2.8920 H       1  UNL1        0.0000
     33 C          19.3993    9.0998    1.2785 C.ar    1  UNL1        0.0000
     34 C          19.4870    9.7888    0.0659 C.ar    1  UNL1        0.0000
     35 H          19.5414   10.8495   -0.0659 H       1  UNL1        0.0000
     36 C          19.4900    8.8209   -0.9200 C.ar    1  UNL1        0.0000
     37 C          19.3251    9.6829    2.6415 C.3     1  UNL1        0.0000
     38 H          18.8539    8.9676    3.3241 H       1  UNL1        0.0000
     39 H          18.7409   10.6006    2.6163 H       1  UNL1        0.0000
     40 H          20.3214    9.9220    3.0142 H       1  UNL1        0.0000
     41 C          19.5703    8.9941   -2.3927 C.3     1  UNL1        0.0000
     42 H          18.6523    8.6577   -2.8724 H       1  UNL1        0.0000
     43 H          20.3975    8.4186   -2.8032 H       1  UNL1        0.0000
     44 H          19.7215   10.0445   -2.6247 H       1  UNL1        0.0000
@<TRIPOS>BOND
     1    31    29    1
     2    32    29    1
     3    19    17    1
     4    42    41    1
     5    18    17    1
     6    43    41    1
     7    30    29    1
     8    20    17    1
     9    44    41    1
    10    29    24    1
    11    17    12    1
    12    41    36    1
    13     8     7    1
    14    24     4   ar
    15    24    22   ar
    16    12     2   ar
    17    12    10   ar
    18    36     6   ar
    19    36    34   ar
    20     7     4    1
    21     7     2    1
    22     7     6    1
    23    23    22    1
    24     4     3   ar
    25     2     1   ar
    26     6     5   ar
    27    22    21   ar
    28    11    10    1
    29    35    34    1
    30    10     9   ar
    31    34    33   ar
    32     3    21   ar
    33    21    25    1
    34     1     9   ar
    35     5    33   ar
    36     9    13    1
    37    33    37    1
    38    28    25    1
    39    25    26    1
    40    25    27    1
    41    16    13    1
    42    13    15    1
    43    13    14    1
    44    39    37    1
    45    37    40    1
    46    37    38    1
