@<TRIPOS>MOLECULE
1,2,3
 44 46 0 0 0
SMALL
GASTEIGER

@<TRIPOS>ATOM
      1 N           4.5235    7.2893    2.3063 N.3     1  UNL1        0.0000
      2 N           6.2597    5.0793    2.6049 N.pl3   1  UNL1        0.0000
      3 N           5.3215    6.4804    4.9434 N.3     1  UNL1        0.0000
      4 N           3.5811    6.3544    2.5239 N.pl3   1  UNL1        0.0000
      5 N           5.1007    4.4186    2.7737 N.3     1  UNL1        0.0000
      6 N           4.2930    5.6274    4.7909 N.pl3   1  UNL1        0.0000
      7 C           4.0108    8.2036    1.4854 C.3     1  UNL1        0.0000
      8 C           4.7807    9.3851    1.0173 C.3     1  UNL1        0.0000
      9 H           4.9103   10.1050    1.8253 H       1  UNL1        0.0000
     10 H           4.2571    9.8699    0.1974 H       1  UNL1        0.0000
     11 H           5.7738    9.0751    0.6834 H       1  UNL1        0.0000
     12 C           5.4374    6.7543    6.2410 C.3     1  UNL1        0.0000
     13 C           2.6974    7.8467    1.1687 C.2     1  UNL1        0.0000
     14 H           2.0170    8.3759    0.5330 H       1  UNL1        0.0000
     15 C           5.2104    3.1654    2.2915 C.3     1  UNL1        0.0000
     16 C           7.1182    4.2549    2.0090 C.2     1  UNL1        0.0000
     17 C           4.4540    6.0551    6.9444 C.2     1  UNL1        0.0000
     18 H           4.2830    6.0626    8.0016 H       1  UNL1        0.0000
     19 C           8.5047    4.6564    1.6562 C.3     1  UNL1        0.0000
     20 H           8.4973    5.6328    1.1661 H       1  UNL1        0.0000
     21 H           8.9480    3.9195    0.9914 H       1  UNL1        0.0000
     22 H           9.1217    4.7381    2.5509 H       1  UNL1        0.0000
     23 C           3.7451    5.3490    5.9888 C.2     1  UNL1        0.0000
     24 C           6.4917    3.0248    1.7908 C.2     1  UNL1        0.0000
     25 H           6.9144    2.1542    1.3320 H       1  UNL1        0.0000
     26 C           2.4579    6.6667    1.8487 C.2     1  UNL1        0.0000
     27 C           6.4749    7.6734    6.7783 C.3     1  UNL1        0.0000
     28 H           7.4737    7.2872    6.5733 H       1  UNL1        0.0000
     29 H           6.3524    7.7802    7.8532 H       1  UNL1        0.0000
     30 H           6.3936    8.6552    6.3108 H       1  UNL1        0.0000
     31 B           3.8858    5.1249    3.3962 B       1  UNL1        0.0000
     32 H           2.9564    4.4033    3.4579 H       1  UNL1        0.0000
     33 C           4.1128    2.1640    2.3219 C.3     1  UNL1        0.0000
     34 H           3.7889    1.9760    3.3442 H       1  UNL1        0.0000
     35 H           4.4619    1.2316    1.8866 H       1  UNL1        0.0000
     36 H           3.2527    2.5163    1.7547 H       1  UNL1        0.0000
     37 C           1.2180    5.8480    1.8737 C.3     1  UNL1        0.0000
     38 H           1.4061    4.8494    1.4821 H       1  UNL1        0.0000
     39 H           0.4566    6.3263    1.2636 H       1  UNL1        0.0000
     40 H           0.8423    5.7466    2.8905 H       1  UNL1        0.0000
     41 C           2.5878    4.4377    6.1838 C.3     1  UNL1        0.0000
     42 H           1.7150    4.7996    5.6427 H       1  UNL1        0.0000
     43 H           2.3465    4.3812    7.2418 H       1  UNL1        0.0000
     44 H           2.8186    3.4373    5.8214 H       1  UNL1        0.0000
@<TRIPOS>BOND
     1    10     8    1
     2    14    13    1
     3    11     8    1
     4    21    19    1
     5     8     7    1
     6     8     9    1
     7    20    19    1
     8    13     7    1
     9    13    26    2
    10    39    37    1
    11    25    24    1
    12    38    37    1
    13     7     1    1
    14    19    16    1
    15    19    22    1
    16    36    33    1
    17    24    16    2
    18    24    15    1
    19    26    37    1
    20    26     4    1
    21    37    40    1
    22    35    33    1
    23    16     2    1
    24    15    33    1
    25    15     5    1
    26     1     4    1
    27    33    34    1
    28     4    31    1
    29     2     5    1
    30     5    31    1
    31    31    32    1
    32    31     6    1
    33     6     3    1
    34     6    23    1
    35     3    12    1
    36    42    41    1
    37    44    41    1
    38    23    41    1
    39    23    17    2
    40    41    43    1
    41    12    27    1
    42    12    17    1
    43    30    27    1
    44    28    27    1
    45    27    29    1
    46    17    18    1
