@<TRIPOS>MOLECULE
1,3,5
 44 46 0 0 0
SMALL
GASTEIGER

@<TRIPOS>ATOM
      1 N           2.2650    4.5595   15.4581 N.pl3   1  UNL1        0.0000
      2 N           0.9951    4.2723   15.7944 N.3     1  UNL1        0.0000
      3 N           2.0279    2.0897   14.0710 N.pl3   1  UNL1        0.0000
      4 N           0.7931    2.1096   14.6032 N.3     1  UNL1        0.0000
      5 N           2.7821    2.1122   16.8194 N.3     1  UNL1        0.0000
      6 N           1.4495    2.1516   16.9963 N.pl3   1  UNL1        0.0000
      7 C           1.1467    6.4658   15.6976 C.2     1  UNL1        0.0000
      8 H           0.9124    7.5103   15.7309 H       1  UNL1        0.0000
      9 C           0.2901    5.4097   15.9489 C.3     1  UNL1        0.0000
     10 C           2.3808    5.8849   15.3943 C.2     1  UNL1        0.0000
     11 C           2.2961    1.1208   18.7475 C.2     1  UNL1        0.0000
     12 H           2.3974    0.6069   19.6817 H       1  UNL1        0.0000
     13 C          -0.0708    1.4778   13.7852 C.3     1  UNL1        0.0000
     14 C           3.6552    6.5640   15.0448 C.3     1  UNL1        0.0000
     15 H           4.4094    6.3814   15.8111 H       1  UNL1        0.0000
     16 H           3.4948    7.6351   14.9541 H       1  UNL1        0.0000
     17 H           4.0400    6.1744   14.0983 H       1  UNL1        0.0000
     18 B           0.5399    2.8121   15.9451 B       1  UNL1        0.0000
     19 H          -0.5938    2.7454   16.2594 H       1  UNL1        0.0000
     20 C           0.6441    1.0417   12.6842 C.2     1  UNL1        0.0000
     21 H           0.2665    0.5033   11.8390 H       1  UNL1        0.0000
     22 C           3.3168    1.4914   17.8703 C.3     1  UNL1        0.0000
     23 C           1.9625    1.4483   12.9060 C.2     1  UNL1        0.0000
     24 C           3.1521    1.2489   12.0404 C.3     1  UNL1        0.0000
     25 H           3.6766    2.1953   11.8927 H       1  UNL1        0.0000
     26 H           2.8529    0.8430   11.0776 H       1  UNL1        0.0000
     27 H           3.8536    0.5541   12.5032 H       1  UNL1        0.0000
     28 C          -1.5194    1.3144   14.0739 C.3     1  UNL1        0.0000
     29 H          -1.6693    0.7712   15.0056 H       1  UNL1        0.0000
     30 H          -1.9891    0.7614   13.2651 H       1  UNL1        0.0000
     31 H          -2.0066    2.2838   14.1666 H       1  UNL1        0.0000
     32 C          -1.1475    5.4533   16.3225 C.3     1  UNL1        0.0000
     33 H          -1.7544    4.9326   15.5834 H       1  UNL1        0.0000
     34 H          -1.4749    6.4878   16.3798 H       1  UNL1        0.0000
     35 H          -1.3111    4.9785   17.2886 H       1  UNL1        0.0000
     36 C           1.1219    1.5579   18.1579 C.2     1  UNL1        0.0000
     37 C           4.7795    1.2643   18.0159 C.3     1  UNL1        0.0000
     38 H           5.1537    0.6410   17.2031 H       1  UNL1        0.0000
     39 H           4.9830    0.7692   18.9623 H       1  UNL1        0.0000
     40 H           5.3194    2.2114   17.9872 H       1  UNL1        0.0000
     41 C          -0.2692    1.4279   18.6633 C.3     1  UNL1        0.0000
     42 H          -0.7242    2.4079   18.7971 H       1  UNL1        0.0000
     43 H          -0.2602    0.9112   19.6193 H       1  UNL1        0.0000
     44 H          -0.8831    0.8634   17.9635 H       1  UNL1        0.0000
@<TRIPOS>BOND
     1    26    24    1
     2    21    20    1
     3    25    24    1
     4    24    27    1
     5    24    23    1
     6    20    23    2
     7    20    13    1
     8    23     3    1
     9    30    28    1
    10    13    28    1
    11    13     4    1
    12     3     4    1
    13    28    31    1
    14    28    29    1
    15    17    14    1
    16     4    18    1
    17    16    14    1
    18    14    10    1
    19    14    15    1
    20    10     1    1
    21    10     7    2
    22     1     2    1
    23    33    32    1
    24     7     8    1
    25     7     9    1
    26     2    18    1
    27     2     9    1
    28    18    19    1
    29    18     6    1
    30     9    32    1
    31    32    34    1
    32    32    35    1
    33     5     6    1
    34     5    22    1
    35     6    36    1
    36    38    37    1
    37    22    37    1
    38    22    11    1
    39    44    41    1
    40    40    37    1
    41    37    39    1
    42    36    41    1
    43    36    11    2
    44    41    42    1
    45    41    43    1
    46    11    12    1
