@<TRIPOS>MOLECULE
1,4
 48 50 0 0 0
SMALL
GASTEIGER

@<TRIPOS>ATOM
      1 SI          0.5151    2.1520    9.8737 Si      1  UNL1        0.0000
      2 SI         -2.6789    2.8646    6.6233 Si      1  UNL1        0.0000
      3 O          -0.6701    0.9988    9.8249 O.3     1  UNL1        0.0000
      4 C          -0.2684    2.6862    7.9060 C.3     1  UNL1        0.0000
      5 C          -1.4561    2.1521    7.8907 C.3     1  UNL1        0.0000
      6 C          -1.8103    1.1850    9.0105 C.3     1  UNL1        0.0000
      7 C          -1.6754    3.3691    5.0823 C.3     1  UNL1        0.0000
      8 H          -2.1880    4.1407    4.5167 H       1  UNL1        0.0000
      9 H          -1.5067    2.5321    4.4119 H       1  UNL1        0.0000
     10 H          -0.7082    3.7646    5.3852 H       1  UNL1        0.0000
     11 C          -3.4561    4.4330    7.3864 C.3     1  UNL1        0.0000
     12 H          -2.6884    5.1764    7.5802 H       1  UNL1        0.0000
     13 H          -3.9600    4.2317    8.3264 H       1  UNL1        0.0000
     14 H          -4.1822    4.8776    6.7123 H       1  UNL1        0.0000
     15 C          -4.0579    1.6537    6.0894 C.3     1  UNL1        0.0000
     16 H          -4.7159    1.3897    6.9112 H       1  UNL1        0.0000
     17 H          -3.6616    0.7353    5.6674 H       1  UNL1        0.0000
     18 H          -4.6712    2.1217    5.3257 H       1  UNL1        0.0000
     19 C          -2.1816   -0.1880    8.4482 C.3     1  UNL1        0.0000
     20 H          -1.3858   -0.5509    7.8010 H       1  UNL1        0.0000
     21 H          -3.1048   -0.1368    7.8826 H       1  UNL1        0.0000
     22 H          -2.3016   -0.8879    9.2719 H       1  UNL1        0.0000
     23 C          -2.9388    1.7493    9.8709 C.3     1  UNL1        0.0000
     24 H          -3.1118    1.0869   10.7158 H       1  UNL1        0.0000
     25 H          -3.8519    1.8400    9.2904 H       1  UNL1        0.0000
     26 H          -2.6489    2.7258   10.2506 H       1  UNL1        0.0000
     27 C           1.8462    1.2341   10.8656 C.ar    1  UNL1        0.0000
     28 C           1.7424   -0.1165   11.1737 C.ar    1  UNL1        0.0000
     29 H           0.8928   -0.6703   10.8062 H       1  UNL1        0.0000
     30 C           2.7013   -0.7468   11.9479 C.ar    1  UNL1        0.0000
     31 H           2.6058   -1.7992   12.1761 H       1  UNL1        0.0000
     32 C           3.7807   -0.0287   12.4342 C.ar    1  UNL1        0.0000
     33 H           4.5305   -0.5174   13.0395 H       1  UNL1        0.0000
     34 C           3.8901    1.3221   12.1456 C.ar    1  UNL1        0.0000
     35 H           4.7256    1.8902   12.5291 H       1  UNL1        0.0000
     36 C           2.9306    1.9435   11.3662 C.ar    1  UNL1        0.0000
     37 H           3.0158    2.9975   11.1480 H       1  UNL1        0.0000
     38 C          -0.0669    3.6017   10.9858 C.ar    1  UNL1        0.0000
     39 C           0.0602    3.5382   12.3694 C.ar    1  UNL1        0.0000
     40 H           0.5071    2.6612   12.8149 H       1  UNL1        0.0000
     41 C          -0.3678    4.5765   13.1780 C.ar    1  UNL1        0.0000
     42 H          -0.2544    4.5073   14.2506 H       1  UNL1        0.0000
     43 C          -0.9368    5.7045   12.6129 C.ar    1  UNL1        0.0000
     44 H          -1.2684    6.5189   13.2408 H       1  UNL1        0.0000
     45 C          -1.0745    5.7853   11.2371 C.ar    1  UNL1        0.0000
     46 H          -1.5141    6.6641   10.7879 H       1  UNL1        0.0000
     47 C          -0.6416    4.7449   10.4354 C.ar    1  UNL1        0.0000
     48 H          -0.7457    4.8168    9.3594 H       1  UNL1        0.0000
@<TRIPOS>BOND
     1     9     7    1
     2     8     7    1
     3     7    10    1
     4     7     2    1
     5    18    15    1
     6    17    15    1
     7    15     2    1
     8    15    16    1
     9     2    11    1
    10     2     5    1
    11    14    11    1
    12    11    12    1
    13    11    13    1
    14    20    19    1
    15    21    19    1
    16     5     4    1
    17     5     6    1
    18     4     1    1
    19    19     6    1
    20    19    22    1
    21     6     3    1
    22     6    23    1
    23    25    23    1
    24    48    47    1
    25     3     1    1
    26    23    26    1
    27    23    24    1
    28     1    27    1
    29     1    38    1
    30    47    38   ar
    31    47    45   ar
    32    46    45    1
    33    29    28    1
    34    27    28   ar
    35    27    36   ar
    36    38    39   ar
    37    37    36    1
    38    28    30   ar
    39    45    43   ar
    40    36    34   ar
    41    30    31    1
    42    30    32   ar
    43    34    32   ar
    44    34    35    1
    45    39    40    1
    46    39    41   ar
    47    32    33    1
    48    43    41   ar
    49    43    44    1
    50    41    42    1
