@<TRIPOS>MOLECULE
7
 55 57 0 0 0
SMALL
GASTEIGER

@<TRIPOS>ATOM
      1 SI          0.8633    4.1304   11.3849 Si      1  UNL1        0.0000
      2 N           0.6839    5.3553   10.1827 N.pl3   1  UNL1        0.0000
      3 N          -0.0679    4.7740   12.8791 N.3     1  UNL1        0.0000
      4 N          -0.8931    3.3969   11.5158 N.3     1  UNL1        0.0000
      5 N           1.7522    6.5255    8.5223 N.ar    1  UNL1        0.0000
      6 C          -2.0143    3.4920   13.7425 C.ar    1  UNL1        0.0000
      7 C           3.0333    4.9704    9.8985 C.ar    1  UNL1        0.0000
      8 C          -0.4866    6.1308    9.8478 C.3     1  UNL1        0.0000
      9 H          -0.7661    5.9697    8.8043 H       1  UNL1        0.0000
     10 H          -1.3014    5.8305   10.5018 H       1  UNL1        0.0000
     11 H          -0.2799    7.1952    9.9758 H       1  UNL1        0.0000
     12 C          -1.0371    3.9056   12.7207 C.3     1  UNL1        0.0000
     13 C           4.1528    5.3691    9.1813 C.ar    1  UNL1        0.0000
     14 H           5.1211    4.9564    9.4411 H       1  UNL1        0.0000
     15 C           1.8493    5.6324    9.5008 C.ar    1  UNL1        0.0000
     16 C           2.8525    6.8459    7.8539 C.ar    1  UNL1        0.0000
     17 H           2.7199    7.5735    7.0611 H       1  UNL1        0.0000
     18 C          -1.6550    2.8257    9.3264 C.3     1  UNL1        0.0000
     19 H          -2.3219    3.6685    9.1654 H       1  UNL1        0.0000
     20 H          -0.6552    3.1319    9.0440 H       1  UNL1        0.0000
     21 H          -1.9768    2.0015    8.6944 H       1  UNL1        0.0000
     22 C          -3.7740    2.6286   15.7105 C.ar    1  UNL1        0.0000
     23 H          -4.4591    2.2927   16.4746 H       1  UNL1        0.0000
     24 C           4.0824    6.3043    8.1490 C.ar    1  UNL1        0.0000
     25 H           4.9658    6.5989    7.5970 H       1  UNL1        0.0000
     26 C          -4.1260    3.6761   14.8750 C.ar    1  UNL1        0.0000
     27 H          -5.0857    4.1583   14.9883 H       1  UNL1        0.0000
     28 C          -2.5411    2.0150   15.5660 C.ar    1  UNL1        0.0000
     29 H          -2.2612    1.2008   16.2184 H       1  UNL1        0.0000
     30 C           0.3063    5.5886   14.0110 C.3     1  UNL1        0.0000
     31 C           1.2989    4.8113   14.8825 C.3     1  UNL1        0.0000
     32 H           0.8248    3.9251   15.3008 H       1  UNL1        0.0000
     33 H           2.1384    4.4957   14.2695 H       1  UNL1        0.0000
     34 H           1.6582    5.4348   15.6976 H       1  UNL1        0.0000
     35 C          -3.1505    2.3595   11.2462 C.3     1  UNL1        0.0000
     36 H          -3.2615    1.9098   12.2289 H       1  UNL1        0.0000
     37 H          -3.5862    3.3550   11.2622 H       1  UNL1        0.0000
     38 H          -3.7059    1.7553   10.5317 H       1  UNL1        0.0000
     39 C           0.9737    6.8373   13.4270 C.3     1  UNL1        0.0000
     40 H           1.7834    6.5400   12.7705 H       1  UNL1        0.0000
     41 H           0.2520    7.4055   12.8459 H       1  UNL1        0.0000
     42 H           1.3653    7.4672   14.2216 H       1  UNL1        0.0000
     43 C          -3.2516    4.1085   13.8951 C.ar    1  UNL1        0.0000
     44 H          -3.5252    4.9275   13.2462 H       1  UNL1        0.0000
     45 C          -1.6822    2.4167   10.8053 C.3     1  UNL1        0.0000
     46 C          -1.0640    1.0248   10.9962 C.3     1  UNL1        0.0000
     47 H          -0.0290    1.0246   10.6668 H       1  UNL1        0.0000
     48 H          -1.0943    0.7450   12.0477 H       1  UNL1        0.0000
     49 H          -1.6176    0.2829   10.4252 H       1  UNL1        0.0000
     50 C          -1.6626    2.4433   14.5866 C.ar    1  UNL1        0.0000
     51 H          -0.6953    1.9754   14.4704 H       1  UNL1        0.0000
     52 C          -0.8887    6.0335   14.8636 C.3     1  UNL1        0.0000
     53 H          -1.6731    6.4504   14.2364 H       1  UNL1        0.0000
     54 H          -1.2990    5.2121   15.4446 H       1  UNL1        0.0000
     55 H          -0.5591    6.8052   15.5560 H       1  UNL1        0.0000
@<TRIPOS>BOND
     1    17    16    1
     2    25    24    1
     3    16    24   ar
     4    16     5   ar
     5    24    13   ar
     6     5    15   ar
     7    21    18    1
     8     9     8    1
     9    20    18    1
    10    19    18    1
    11    13    14    1
    12    13     7   ar
    13    18    45    1
    14    15     7   ar
    15    15     2    1
    16     8    11    1
    17     8     2    1
    18     8    10    1
    19     2     1    1
    20    49    46    1
    21    38    35    1
    22    47    46    1
    23    45    46    1
    24    45    35    1
    25    45     4    1
    26    46    48    1
    27    35    37    1
    28    35    36    1
    29     1     4    1
    30     1     3    1
    31     4    12    1
    32    12     3    1
    33    12     6    1
    34    40    39    1
    35    41    39    1
    36     3    30    1
    37    44    43    1
    38    39    30    1
    39    39    42    1
    40     6    43   ar
    41     6    50   ar
    42    43    26   ar
    43    30    52    1
    44    30    31    1
    45    53    52    1
    46    33    31    1
    47    51    50    1
    48    50    28   ar
    49    52    54    1
    50    52    55    1
    51    26    27    1
    52    26    22   ar
    53    31    32    1
    54    31    34    1
    55    28    22   ar
    56    28    29    1
    57    22    23    1
