@<TRIPOS>MOLECULE
1,28
 30 31 0 0 0
SMALL
GASTEIGER

@<TRIPOS>ATOM
      1 SI          8.0140    2.1186   10.7328 Si      1  UNL1        0.0000
      2 C          10.2720   -0.8777   12.5639 C.ar    1  UNL1        0.0000
      3 H          10.3856   -1.2736   13.5641 H       1  UNL1        0.0000
      4 C          11.0508   -1.3717   11.5317 C.ar    1  UNL1        0.0000
      5 H          11.7701   -2.1560   11.7204 H       1  UNL1        0.0000
      6 C          11.2086    4.7727   10.3519 C.ar    1  UNL1        0.0000
      7 H          11.9559    4.9921    9.6017 H       1  UNL1        0.0000
      8 C          10.9088   -0.8481   10.2579 C.ar    1  UNL1        0.0000
      9 H          11.5216   -1.2211    9.4486 H       1  UNL1        0.0000
     10 C          10.2390    3.8180   10.1042 C.ar    1  UNL1        0.0000
     11 H          10.2480    3.2904    9.1625 H       1  UNL1        0.0000
     12 C           9.3524    0.1258   12.3156 C.ar    1  UNL1        0.0000
     13 H           8.7597    0.5170   13.1324 H       1  UNL1        0.0000
     14 C           9.2626    3.5195   11.0428 C.ar    1  UNL1        0.0000
     15 C           9.1816    0.6489   11.0415 C.ar    1  UNL1        0.0000
     16 C          11.2256    5.4444   11.5621 C.ar    1  UNL1        0.0000
     17 H          11.9802    6.1926   11.7599 H       1  UNL1        0.0000
     18 C          10.2745    5.1428   12.5213 C.ar    1  UNL1        0.0000
     19 H          10.2884    5.6511   13.4760 H       1  UNL1        0.0000
     20 C           9.9843    0.1537   10.0227 C.ar    1  UNL1        0.0000
     21 H           9.8851    0.5601    9.0253 H       1  UNL1        0.0000
     22 C           7.5258    3.2818    8.1150 C.3     1  UNL1        0.0000
     23 H           6.7980    3.3674    7.3083 H       1  UNL1        0.0000
     24 H           8.5046    3.1362    7.6481 H       1  UNL1        0.0000
     25 H           7.5556    4.2281    8.6542 H       1  UNL1        0.0000
     26 C           9.3098    4.1876   12.2586 C.ar    1  UNL1        0.0000
     27 H           8.5792    3.9544   13.0221 H       1  UNL1        0.0000
     28 C           7.1691    2.1183    9.0309 C.3     1  UNL1        0.0000
     29 H           7.1599    2.1792   11.9748 H       1  UNL1        0.0000
     30 H           7.4227    1.1974    8.4875 H       1  UNL1        0.0000
@<TRIPOS>BOND
     1    23    22    1
     2    24    22    1
     3    22    25    1
     4    22    28    1
     5    30    28    1
     6    21    20    1
     7    28     1    1
     8    11    10    1
     9     9     8    1
    10     7     6    1
    11    20     8   ar
    12    20    15   ar
    13    10     6   ar
    14    10    14   ar
    15     8     4   ar
    16     6    16   ar
    17     1    15    1
    18     1    14    1
    19     1    29    1
    20    15    12   ar
    21    14    26   ar
    22     4     5    1
    23     4     2   ar
    24    16    17    1
    25    16    18   ar
    26    26    18   ar
    27    26    27    1
    28    12     2   ar
    29    12    13    1
    30    18    19    1
    31     2     3    1
