@<TRIPOS>MOLECULE
3,4
 69 73 0 0 0
SMALL
GASTEIGER

@<TRIPOS>ATOM
      1 N           2.3061   24.5099   13.4161 N.pl3   1  UNL1        0.0000
      2 N           3.3970   26.1594   12.5813 N.pl3   1  UNL1        0.0000
      3 SI          4.8215   22.7095   11.8272 Si      1  UNL1        0.0000
      4 C           3.5716   24.9526   13.1908 C.3     1  UNL1        0.0000
      5 C           1.3729   25.4126   12.9740 C.2     1  UNL1        0.0000
      6 H           0.3196   25.2397   13.0541 H       1  UNL1        0.0000
      7 C           2.0568   26.4478   12.4457 C.2     1  UNL1        0.0000
      8 H           1.7149   27.3622   12.0062 H       1  UNL1        0.0000
      9 C           4.4019   26.9569   11.9837 C.ar    1  UNL1        0.0000
     10 C           5.2730   27.6992   12.7813 C.ar    1  UNL1        0.0000
     11 C           6.2565   28.4585   12.1658 C.ar    1  UNL1        0.0000
     12 H           6.9380   29.0327   12.7781 H       1  UNL1        0.0000
     13 C           6.3788   28.5027   10.7845 C.ar    1  UNL1        0.0000
     14 C           5.4713   27.7911   10.0136 C.ar    1  UNL1        0.0000
     15 H           5.5422   27.8331    8.9366 H       1  UNL1        0.0000
     16 C           4.4745   27.0191   10.5900 C.ar    1  UNL1        0.0000
     17 C           3.4902   26.2898    9.7280 C.3     1  UNL1        0.0000
     18 H           2.5581   26.8513    9.6559 H       1  UNL1        0.0000
     19 H           3.2689   25.3065   10.1356 H       1  UNL1        0.0000
     20 H           3.8870   26.1608    8.7251 H       1  UNL1        0.0000
     21 C           7.4476   29.3279   10.1336 C.3     1  UNL1        0.0000
     22 H           7.0480   30.3023    9.8511 H       1  UNL1        0.0000
     23 H           7.8123   28.8429    9.2308 H       1  UNL1        0.0000
     24 H           8.2827   29.4898   10.8111 H       1  UNL1        0.0000
     25 C           5.1245   27.6835   14.2700 C.3     1  UNL1        0.0000
     26 H           5.1979   26.6639   14.6437 H       1  UNL1        0.0000
     27 H           4.1461   28.0716   14.5525 H       1  UNL1        0.0000
     28 H           5.8883   28.2952   14.7419 H       1  UNL1        0.0000
     29 C           2.0254   23.2262   13.9438 C.ar    1  UNL1        0.0000
     30 C           1.3227   23.1041   15.1430 C.ar    1  UNL1        0.0000
     31 C           1.0623   21.8352   15.6321 C.ar    1  UNL1        0.0000
     32 H           0.5148   21.7278   16.5563 H       1  UNL1        0.0000
     33 C           1.4880   20.6987   14.9559 C.ar    1  UNL1        0.0000
     34 C           2.1186   20.8450   13.7334 C.ar    1  UNL1        0.0000
     35 H           2.3904   19.9667   13.1646 H       1  UNL1        0.0000
     36 C           2.3739   22.0988   13.1835 C.ar    1  UNL1        0.0000
     37 C           2.9101   22.2345   11.8137 C.3     1  UNL1        0.0000
     38 H           2.3795   23.0272   11.2869 H       1  UNL1        0.0000
     39 H           2.7578   21.3039   11.2723 H       1  UNL1        0.0000
     40 C           1.2190   19.3420   15.5329 C.3     1  UNL1        0.0000
     41 H           1.6465   18.5616   14.9084 H       1  UNL1        0.0000
     42 H           0.1465   19.1693   15.6202 H       1  UNL1        0.0000
     43 H           1.6502   19.2711   16.5301 H       1  UNL1        0.0000
     44 C           0.8157   24.3162   15.8669 C.3     1  UNL1        0.0000
     45 H          -0.1221   24.6563   15.4252 H       1  UNL1        0.0000
     46 H           1.5317   25.1330   15.8103 H       1  UNL1        0.0000
     47 H           0.6239   24.0799   16.9096 H       1  UNL1        0.0000
     48 C           5.5382   20.9302   11.7505 C.ar    1  UNL1        0.0000
     49 C           5.3125   20.0747   12.8241 C.ar    1  UNL1        0.0000
     50 H           4.7861   20.4580   13.6882 H       1  UNL1        0.0000
     51 C           5.7282   18.7562   12.7975 C.ar    1  UNL1        0.0000
     52 H           5.5310   18.1032   13.6383 H       1  UNL1        0.0000
     53 C           6.3881   18.2621   11.6836 C.ar    1  UNL1        0.0000
     54 H           6.7049   17.2287   11.6527 H       1  UNL1        0.0000
     55 C           6.6392   19.1033   10.6132 C.ar    1  UNL1        0.0000
     56 H           7.1560   18.7247    9.7410 H       1  UNL1        0.0000
     57 C           6.2247   20.4236   10.6545 C.ar    1  UNL1        0.0000
     58 H           6.4316   21.0739    9.8168 H       1  UNL1        0.0000
     59 C           5.0880   23.2780   10.0117 C.ar    1  UNL1        0.0000
     60 C           4.4362   22.6767    8.9403 C.ar    1  UNL1        0.0000
     61 H           3.7161   21.8938    9.1295 H       1  UNL1        0.0000
     62 C           4.6962   23.0511    7.6341 C.ar    1  UNL1        0.0000
     63 H           4.1766   22.5674    6.8176 H       1  UNL1        0.0000
     64 C           5.6300   24.0390    7.3685 C.ar    1  UNL1        0.0000
     65 H           5.8425   24.3266    6.3476 H       1  UNL1        0.0000
     66 C           6.2844   24.6543    8.4217 C.ar    1  UNL1        0.0000
     67 H           7.0113   25.4320    8.2286 H       1  UNL1        0.0000
     68 C           6.0052   24.2780    9.7234 C.ar    1  UNL1        0.0000
     69 H           6.5047   24.7744   10.5388 H       1  UNL1        0.0000
@<TRIPOS>BOND
     1    65    64    1
     2    63    62    1
     3    64    62   ar
     4    64    66   ar
     5    62    60   ar
     6    67    66    1
     7    66    68   ar
     8    20    17    1
     9    15    14    1
    10    60    61    1
    11    60    59   ar
    12    23    21    1
    13    18    17    1
    14    68    59   ar
    15    68    69    1
    16    17    19    1
    17    17    16    1
    18    56    55    1
    19    58    57    1
    20    22    21    1
    21    59     3    1
    22    14    16   ar
    23    14    13   ar
    24    21    13    1
    25    21    24    1
    26    16     9   ar
    27    55    57   ar
    28    55    53   ar
    29    57    48   ar
    30    13    11   ar
    31    39    37    1
    32    38    37    1
    33    54    53    1
    34    53    51   ar
    35    48     3    1
    36    48    49   ar
    37    37     3    1
    38    37    36    1
    39     9     2    1
    40     9    10   ar
    41     8     7    1
    42    11    12    1
    43    11    10   ar
    44     7     2    1
    45     7     5    2
    46     2     4    1
    47    10    25    1
    48    51    49   ar
    49    51    52    1
    50    49    50    1
    51     5     6    1
    52     5     1    1
    53    35    34    1
    54    36    34   ar
    55    36    29   ar
    56     4     1    1
    57     1    29    1
    58    34    33   ar
    59    29    30   ar
    60    25    27    1
    61    25    26    1
    62    25    28    1
    63    41    40    1
    64    33    40    1
    65    33    31   ar
    66    30    31   ar
    67    30    44    1
    68    45    44    1
    69    40    42    1
    70    40    43    1
    71    31    32    1
    72    46    44    1
    73    44    47    1
