@<TRIPOS>MOLECULE
1,4
 62 65 0 0 0
SMALL
GASTEIGER

@<TRIPOS>ATOM
      1 SI         12.2695    1.9902    4.5255 Si      1  UNL1        0.0000
      2 N          14.4039    4.7816    4.3849 N.pl3   1  UNL1        0.0000
      3 N          13.2930    5.5008    2.6956 N.pl3   1  UNL1        0.0000
      4 C          13.6919    4.3487    3.3099 C.3     1  UNL1        0.0000
      5 C          14.4542    6.1533    4.4323 C.2     1  UNL1        0.0000
      6 H          14.9608    6.6786    5.2155 H       1  UNL1        0.0000
      7 C          13.7568    6.6077    3.3727 C.2     1  UNL1        0.0000
      8 H          13.5401    7.6039    3.0444 H       1  UNL1        0.0000
      9 C          14.9679    3.9649    5.3956 C.ar    1  UNL1        0.0000
     10 C          16.3491    3.9447    5.5751 C.ar    1  UNL1        0.0000
     11 C          16.8791    3.1494    6.5818 C.ar    1  UNL1        0.0000
     12 H          17.9516    3.1154    6.7119 H       1  UNL1        0.0000
     13 C          16.0612    2.4005    7.4139 C.ar    1  UNL1        0.0000
     14 C          14.6888    2.4663    7.2362 C.ar    1  UNL1        0.0000
     15 H          14.0434    1.8887    7.8827 H       1  UNL1        0.0000
     16 C          14.1123    3.2440    6.2399 C.ar    1  UNL1        0.0000
     17 C          12.6597    3.2291    6.0181 C.3     1  UNL1        0.0000
     18 H          12.2865    4.2165    5.7540 H       1  UNL1        0.0000
     19 H          12.1446    2.8993    6.9173 H       1  UNL1        0.0000
     20 C          16.6378    1.5121    8.4743 C.3     1  UNL1        0.0000
     21 H          17.7076    1.6736    8.5831 H       1  UNL1        0.0000
     22 H          16.4685    0.4686    8.2081 H       1  UNL1        0.0000
     23 H          16.1551    1.6936    9.4333 H       1  UNL1        0.0000
     24 C          17.2630    4.7647    4.7133 C.3     1  UNL1        0.0000
     25 H          16.8301    4.9308    3.7304 H       1  UNL1        0.0000
     26 H          18.2184    4.2603    4.5954 H       1  UNL1        0.0000
     27 H          17.4501    5.7363    5.1740 H       1  UNL1        0.0000
     28 C          12.4479    5.6435    1.5683 C.ar    1  UNL1        0.0000
     29 C          11.0674    5.4770    1.7362 C.ar    1  UNL1        0.0000
     30 C          10.2325    5.6928    0.6541 C.ar    1  UNL1        0.0000
     31 H           9.1654    5.5742    0.7788 H       1  UNL1        0.0000
     32 C          10.7329    6.0718   -0.5868 C.ar    1  UNL1        0.0000
     33 C          12.0994    6.2413   -0.7240 C.ar    1  UNL1        0.0000
     34 H          12.5068    6.5452   -1.6778 H       1  UNL1        0.0000
     35 C          12.9713    6.0444    0.3413 C.ar    1  UNL1        0.0000
     36 C          14.4375    6.2742    0.1322 C.3     1  UNL1        0.0000
     37 H          14.9977    6.1582    1.0548 H       1  UNL1        0.0000
     38 H          14.6095    7.2773   -0.2566 H       1  UNL1        0.0000
     39 H          14.8223    5.5631   -0.5974 H       1  UNL1        0.0000
     40 C           9.7995    6.2942   -1.7381 C.3     1  UNL1        0.0000
     41 H           9.0658    7.0597   -1.4893 H       1  UNL1        0.0000
     42 H           9.2571    5.3780   -1.9695 H       1  UNL1        0.0000
     43 H          10.3423    6.6083   -2.6256 H       1  UNL1        0.0000
     44 C          10.5187    5.0692    3.0650 C.3     1  UNL1        0.0000
     45 H          10.8783    4.0717    3.3240 H       1  UNL1        0.0000
     46 H           9.4325    5.0614    3.0480 H       1  UNL1        0.0000
     47 H          10.8503    5.7531    3.8451 H       1  UNL1        0.0000
     48 C          10.4328    1.5746    4.9404 C.3     1  UNL1        0.0000
     49 H          10.0924    0.7132    4.3820 H       1  UNL1        0.0000
     50 H           9.7806    2.4019    4.6834 H       1  UNL1        0.0000
     51 H          10.2971    1.3679    5.9974 H       1  UNL1        0.0000
     52 C          13.2902    0.4880    5.1242 C.ar    1  UNL1        0.0000
     53 C          14.6635    0.6009    4.9243 C.ar    1  UNL1        0.0000
     54 H          15.0506    1.4914    4.4198 H       1  UNL1        0.0000
     55 C          15.5389   -0.3738    5.3599 C.ar    1  UNL1        0.0000
     56 H          16.6031   -0.2444    5.2246 H       1  UNL1        0.0000
     57 C          15.0456   -1.5146    5.9745 C.ar    1  UNL1        0.0000
     58 H          15.7241   -2.2842    6.3171 H       1  UNL1        0.0000
     59 C          13.6801   -1.6667    6.1435 C.ar    1  UNL1        0.0000
     60 H          13.2918   -2.5623    6.6112 H       1  UNL1        0.0000
     61 C          12.8154   -0.6668    5.7295 C.ar    1  UNL1        0.0000
     62 H          11.7519   -0.7840    5.8821 H       1  UNL1        0.0000
@<TRIPOS>BOND
     1    43    40    1
     2    42    40    1
     3    40    41    1
     4    40    32    1
     5    34    33    1
     6    33    32   ar
     7    33    35   ar
     8    39    36    1
     9    32    30   ar
    10    38    36    1
    11    36    35    1
    12    36    37    1
    13    35    28   ar
    14    30    31    1
    15    30    29   ar
    16    28    29   ar
    17    28     3    1
    18    29    44    1
    19     3     4    1
    20     3     7    1
    21     8     7    1
    22    46    44    1
    23    44    45    1
    24    44    47    1
    25     4     2    1
    26     7     5    2
    27    25    24    1
    28    49    48    1
    29     2     5    1
    30     2     9    1
    31    54    53    1
    32     5     6    1
    33     1    48    1
    34     1    52    1
    35     1    17    1
    36    26    24    1
    37    50    48    1
    38    24    27    1
    39    24    10    1
    40    53    52   ar
    41    53    55   ar
    42    48    51    1
    43    52    61   ar
    44    56    55    1
    45    55    57   ar
    46     9    10   ar
    47     9    16   ar
    48    10    11   ar
    49    61    62    1
    50    61    59   ar
    51    18    17    1
    52    57    59   ar
    53    57    58    1
    54    17    16    1
    55    17    19    1
    56    59    60    1
    57    16    14   ar
    58    11    12    1
    59    11    13   ar
    60    14    13   ar
    61    14    15    1
    62    13    20    1
    63    22    20    1
    64    20    21    1
    65    20    23    1
