@<TRIPOS>MOLECULE
1,2
 26 27 0 0 0
SMALL
GASTEIGER

@<TRIPOS>ATOM
      1 SI          3.2325    4.0641    3.5301 Si      1  UNL1        0.0000
      2 C           3.0892    2.9820    5.0497 C.3     1  UNL1        0.0000
      3 C           2.0074    5.5215    3.3301 C.ar    1  UNL1        0.0000
      4 C           1.5659    5.9202    2.0729 C.ar    1  UNL1        0.0000
      5 C           0.6788    6.9708    1.9216 C.ar    1  UNL1        0.0000
      6 C           0.2101    7.6463    3.0360 C.ar    1  UNL1        0.0000
      7 C           0.6385    7.2650    4.2962 C.ar    1  UNL1        0.0000
      8 C           1.5279    6.2142    4.4375 C.ar    1  UNL1        0.0000
      9 C           4.9329    4.7998    3.1024 C.ar    1  UNL1        0.0000
     10 C           5.2118    5.2616    1.8210 C.ar    1  UNL1        0.0000
     11 C           6.4588    5.7646    1.4964 C.ar    1  UNL1        0.0000
     12 C           7.4555    5.8168    2.4565 C.ar    1  UNL1        0.0000
     13 C           7.1920    5.3696    3.7403 C.ar    1  UNL1        0.0000
     14 C           5.9428    4.8661    4.0551 C.ar    1  UNL1        0.0000
     15 H           3.9880    2.6829    5.5731 H       1  UNL1        0.0000
     16 H           2.2649    3.1240    5.7348 H       1  UNL1        0.0000
     17 H           1.9240    5.3965    1.1979 H       1  UNL1        0.0000
     18 H           0.3499    7.2654    0.9346 H       1  UNL1        0.0000
     19 H          -0.4837    8.4669    2.9220 H       1  UNL1        0.0000
     20 H           0.2784    7.7904    5.1698 H       1  UNL1        0.0000
     21 H           1.8613    5.9227    5.4226 H       1  UNL1        0.0000
     22 H           4.4401    5.2263    1.0656 H       1  UNL1        0.0000
     23 H           6.6575    6.1147    0.4927 H       1  UNL1        0.0000
     24 H           8.4320    6.2060    2.2053 H       1  UNL1        0.0000
     25 H           7.9648    5.4127    4.4954 H       1  UNL1        0.0000
     26 H           5.7422    4.5175    5.0569 H       1  UNL1        0.0000
@<TRIPOS>BOND
     1    23    11    1
     2    18     5    1
     3    22    10    1
     4    17     4    1
     5    11    10   ar
     6    11    12   ar
     7    10     9   ar
     8     5     4   ar
     9     5     6   ar
    10     4     3   ar
    11    24    12    1
    12    12    13   ar
    13    19     6    1
    14     6     7   ar
    15     9     1    1
    16     9    14   ar
    17     3     1    1
    18     3     8   ar
    19     1     2    1
    20    13    14   ar
    21    13    25    1
    22    14    26    1
    23     7     8   ar
    24     7    20    1
    25     8    21    1
    26     2    15    1
    27     2    16    1
