@<TRIPOS>MOLECULE
1,5
 28 28 0 0 0
SMALL
GASTEIGER

@<TRIPOS>ATOM
      1 SI          1.9476    2.0105    6.2125 Si      1  UNL1        0.0000
      2 N           2.7707    3.8497    6.1797 N.pl3   1  UNL1        0.0000
      3 C           3.2114    1.0856    7.3448 C.3     1  UNL1        0.0000
      4 C           2.4769    1.3928    4.4566 C.3     1  UNL1        0.0000
      5 C           0.4069    4.3066    5.6918 C.ar    1  UNL1        0.0000
      6 C          -0.5292    5.1961    5.1550 C.ar    1  UNL1        0.0000
      7 C          -0.1881    6.4458    4.6697 C.ar    1  UNL1        0.0000
      8 C           1.1316    6.8587    4.7023 C.ar    1  UNL1        0.0000
      9 C           2.0922    5.9977    5.1975 C.ar    1  UNL1        0.0000
     10 C           1.7341    4.7386    5.6632 C.ar    1  UNL1        0.0000
     11 C           3.0826    4.2561    7.5437 C.3     1  UNL1        0.0000
     12 C           3.9868    3.8734    5.3765 C.3     1  UNL1        0.0000
     13 H           2.9819    0.0264    7.2973 H       1  UNL1        0.0000
     14 H           4.2459    1.2016    7.0317 H       1  UNL1        0.0000
     15 H           3.1452    1.3776    8.3874 H       1  UNL1        0.0000
     16 H           1.9979    0.4325    4.2919 H       1  UNL1        0.0000
     17 H           2.1125    2.0558    3.6764 H       1  UNL1        0.0000
     18 H           3.5453    1.2464    4.3202 H       1  UNL1        0.0000
     19 H          -1.5660    4.8939    5.0981 H       1  UNL1        0.0000
     20 H          -0.9497    7.0978    4.2660 H       1  UNL1        0.0000
     21 H           1.4161    7.8350    4.3389 H       1  UNL1        0.0000
     22 H           3.1217    6.3258    5.2121 H       1  UNL1        0.0000
     23 H           3.8636    3.6189    7.9512 H       1  UNL1        0.0000
     24 H           3.4166    5.2963    7.5749 H       1  UNL1        0.0000
     25 H           2.1862    4.1546    8.1472 H       1  UNL1        0.0000
     26 H           4.6226    3.0415    5.6703 H       1  UNL1        0.0000
     27 H           3.7300    3.7738    4.3261 H       1  UNL1        0.0000
     28 H           4.5528    4.7961    5.5186 H       1  UNL1        0.0000
@<TRIPOS>BOND
     1    17     4    1
     2    20     7    1
     3    16     4    1
     4    18     4    1
     5    27    12    1
     6    21     8    1
     7     4     1    1
     8     7     8   ar
     9     7     6   ar
    10     8     9   ar
    11    19     6    1
    12     6     5   ar
    13     9    22    1
    14     9    10   ar
    15    12    28    1
    16    12    26    1
    17    12     2    1
    18    10     5   ar
    19    10     2    1
    20     2     1    1
    21     2    11    1
    22     1     3    1
    23    14     3    1
    24    13     3    1
    25     3    15    1
    26    11    24    1
    27    11    23    1
    28    11    25    1
