@<TRIPOS>MOLECULE
1,6
 12 11 0 0 0
SMALL
GASTEIGER

@<TRIPOS>ATOM
      1 SI          2.8172    3.0012    1.1486 Si      1  UNL1        0.0000
      2 CL          4.1858    1.4963    0.7652 Cl      1  UNL1        0.0000
      3 CL          1.8213    3.2159   -0.6516 Cl      1  UNL1        0.0000
      4 C           1.5396    2.2988    2.4069 C.3     1  UNL1        0.0000
      5 C           0.9221    3.4941    3.1246 C.3     1  UNL1        0.0000
      6 C           1.9961    4.4449    3.6450 C.3     1  UNL1        0.0000
      7 H           2.0430    1.6594    3.1326 H       1  UNL1        0.0000
      8 H           0.7662    1.6979    1.9304 H       1  UNL1        0.0000
      9 H           0.3158    3.1497    3.9688 H       1  UNL1        0.0000
     10 H           0.2570    4.0193    2.4363 H       1  UNL1        0.0000
     11 H           1.5168    5.3509    4.0228 H       1  UNL1        0.0000
     12 H           2.4789    3.9743    4.5056 H       1  UNL1        0.0000
@<TRIPOS>BOND
     1     3     1    1
     2     2     1    1
     3     1     4    1
     4     8     4    1
     5     4     5    1
     6     4     7    1
     7    10     5    1
     8     5     6    1
     9     5     9    1
    10     6    11    1
    11     6    12    1
