@<TRIPOS>MOLECULE
1,6
 12 11 0 0 0
SMALL
GASTEIGER

@<TRIPOS>ATOM
      1 SI          8.1470    5.2077    5.6493 Si      1  UNL1        0.0000
      2 C           9.6340    3.9925    5.7542 C.3     1  UNL1        0.0000
      3 H           9.6299    3.3474    4.8820 H       1  UNL1        0.0000
      4 H           9.5431    3.3594    6.6314 H       1  UNL1        0.0000
      5 H          10.5958    4.4867    5.8006 H       1  UNL1        0.0000
      6 C           8.1469    6.4845    4.3214 C.3     1  UNL1        0.0000
      7 H           9.0466    6.6431    3.7391 H       1  UNL1        0.0000
      8 C           6.6599    3.9924    5.7544 C.3     1  UNL1        0.0000
      9 H           6.6638    3.3475    4.8820 H       1  UNL1        0.0000
     10 H           6.7513    3.3590    6.6313 H       1  UNL1        0.0000
     11 H           5.6982    4.4865    5.8013 H       1  UNL1        0.0000
     12 H           7.2471    6.6432    3.7393 H       1  UNL1        0.0000
@<TRIPOS>BOND
     1     7     6    1
     2    12     6    1
     3     6     1    1
     4     9     8    1
     5     3     2    1
     6     1     2    1
     7     1     8    1
     8     2     5    1
     9     2     4    1
    10     8    11    1
    11     8    10    1
