@<TRIPOS>MOLECULE
1,3
 98 103 0 0 0
SMALL
GASTEIGER

@<TRIPOS>ATOM
      1 SI          3.7264    3.4371   12.5485 Si      1  UNL1        0.0000
      2 O           4.0588    2.4894   13.8298 O.3     1  UNL1        0.0000
      3 C           3.7791    1.1231   13.3610 C.3     1  UNL1        0.0000
      4 C           3.7876    5.2860   13.0625 C.ar    1  UNL1        0.0000
      5 C           2.7670    5.8943   13.8105 C.ar    1  UNL1        0.0000
      6 C           2.7310    7.2759   13.9821 C.ar    1  UNL1        0.0000
      7 C           3.7133    8.0970   13.4694 C.ar    1  UNL1        0.0000
      8 H           3.6785    9.1649   13.6229 H       1  UNL1        0.0000
      9 C           4.7433    7.5109   12.7614 C.ar    1  UNL1        0.0000
     10 C           4.7668    6.1407   12.5325 C.ar    1  UNL1        0.0000
     11 C           1.6711    5.2516   14.6473 C.3     1  UNL1        0.0000
     12 C           0.7437    6.4394   14.9851 C.3     1  UNL1        0.0000
     13 H           0.3823    6.3741   16.0080 H       1  UNL1        0.0000
     14 H          -0.1235    6.4198   14.3308 H       1  UNL1        0.0000
     15 C           1.5215    7.7460   14.7460 C.3     1  UNL1        0.0000
     16 C           5.9158    8.2424   12.1617 C.3     1  UNL1        0.0000
     17 C           6.7175    7.1149   11.4801 C.3     1  UNL1        0.0000
     18 H           7.7295    7.0784   11.8796 H       1  UNL1        0.0000
     19 H           6.8016    7.3066   10.4117 H       1  UNL1        0.0000
     20 C           5.9906    5.7654   11.7204 C.3     1  UNL1        0.0000
     21 C          -0.5317    3.8779   14.3341 C.3     1  UNL1        0.0000
     22 H          -0.6485    3.8447   15.4118 H       1  UNL1        0.0000
     23 H          -0.8514    2.9224   13.9253 H       1  UNL1        0.0000
     24 H          -1.1966    4.6420   13.9397 H       1  UNL1        0.0000
     25 C           0.9209    4.1210   13.9210 C.3     1  UNL1        0.0000
     26 H           0.9230    4.3402   12.8505 H       1  UNL1        0.0000
     27 H           1.4644    3.1866   14.0701 H       1  UNL1        0.0000
     28 C           2.4111    4.7381   15.9051 C.3     1  UNL1        0.0000
     29 H           3.1629    4.0216   15.5710 H       1  UNL1        0.0000
     30 H           2.9491    5.5809   16.3466 H       1  UNL1        0.0000
     31 C           1.5498    4.0898   16.9811 C.3     1  UNL1        0.0000
     32 H           0.7878    4.7721   17.3516 H       1  UNL1        0.0000
     33 H           2.1791    3.8076   17.8237 H       1  UNL1        0.0000
     34 H           1.0658    3.1946   16.6049 H       1  UNL1        0.0000
     35 C           0.8377    9.0060   16.8962 C.3     1  UNL1        0.0000
     36 H           0.3816    9.8547   16.3940 H       1  UNL1        0.0000
     37 H           1.2279    9.3497   17.8520 H       1  UNL1        0.0000
     38 H           0.0640    8.2680   17.0931 H       1  UNL1        0.0000
     39 C           1.9686    8.4131   16.0627 C.3     1  UNL1        0.0000
     40 H           2.4972    7.6698   16.6629 H       1  UNL1        0.0000
     41 H           2.6828    9.2059   15.8280 H       1  UNL1        0.0000
     42 C           0.7066    8.7443   13.8987 C.3     1  UNL1        0.0000
     43 H           1.2027    9.7173   13.9220 H       1  UNL1        0.0000
     44 H          -0.2783    8.8624   14.3541 H       1  UNL1        0.0000
     45 C           0.5320    8.3226   12.4428 C.3     1  UNL1        0.0000
     46 H           1.4892    8.2995   11.9275 H       1  UNL1        0.0000
     47 H          -0.1180    9.0280   11.9292 H       1  UNL1        0.0000
     48 H           0.0872    7.3337   12.3671 H       1  UNL1        0.0000
     49 C           6.4765   10.0955   10.4443 C.3     1  UNL1        0.0000
     50 H           6.9765   10.7635   11.1403 H       1  UNL1        0.0000
     51 H           6.0280   10.7025    9.6605 H       1  UNL1        0.0000
     52 H           7.2252    9.4527    9.9876 H       1  UNL1        0.0000
     53 C           5.3949    9.2787   11.1435 C.3     1  UNL1        0.0000
     54 H           4.8021    8.7530   10.3920 H       1  UNL1        0.0000
     55 H           4.7192    9.9648   11.6581 H       1  UNL1        0.0000
     56 C           6.7192    8.9713   13.2570 C.3     1  UNL1        0.0000
     57 H           7.6428    9.3561   12.8209 H       1  UNL1        0.0000
     58 H           6.1315    9.8267   13.5977 H       1  UNL1        0.0000
     59 C           7.0674    8.1135   14.4678 C.3     1  UNL1        0.0000
     60 H           6.1738    7.6635   14.8936 H       1  UNL1        0.0000
     61 H           7.5415    8.7283   15.2302 H       1  UNL1        0.0000
     62 H           7.7608    7.3200   14.2018 H       1  UNL1        0.0000
     63 C           8.0891    4.2590   11.8525 C.3     1  UNL1        0.0000
     64 H           7.8044    3.5810   11.0523 H       1  UNL1        0.0000
     65 H           8.7024    3.7053   12.5602 H       1  UNL1        0.0000
     66 H           8.6977    5.0536   11.4266 H       1  UNL1        0.0000
     67 C           6.8668    4.8235   12.5665 C.3     1  UNL1        0.0000
     68 H           7.1916    5.3707   13.4529 H       1  UNL1        0.0000
     69 H           6.2466    4.0004   12.9239 H       1  UNL1        0.0000
     70 C           5.6178    5.1137   10.3770 C.3     1  UNL1        0.0000
     71 H           6.4994    5.1226    9.7315 H       1  UNL1        0.0000
     72 H           5.3387    4.0726   10.5507 H       1  UNL1        0.0000
     73 C           4.4668    5.8090    9.6614 C.3     1  UNL1        0.0000
     74 H           3.5533    5.7440   10.2469 H       1  UNL1        0.0000
     75 H           4.2875    5.3459    8.6947 H       1  UNL1        0.0000
     76 H           4.6924    6.8579    9.4908 H       1  UNL1        0.0000
     77 C           5.0754    0.3801   13.4192 C.ar    1  UNL1        0.0000
     78 C           6.2521    0.9936   12.9841 C.ar    1  UNL1        0.0000
     79 H           6.2084    1.9869   12.5660 H       1  UNL1        0.0000
     80 C           7.4774    0.3633   13.0855 C.ar    1  UNL1        0.0000
     81 H           8.3686    0.8705   12.7420 H       1  UNL1        0.0000
     82 C           7.5684   -0.9085   13.6260 C.ar    1  UNL1        0.0000
     83 H           8.5254   -1.4021   13.7075 H       1  UNL1        0.0000
     84 C           6.4150   -1.5309   14.0706 C.ar    1  UNL1        0.0000
     85 H           6.4693   -2.5173   14.5085 H       1  UNL1        0.0000
     86 C           5.1895   -0.8975   13.9758 C.ar    1  UNL1        0.0000
     87 H           4.3139   -1.3982   14.3598 H       1  UNL1        0.0000
     88 C           2.7489    0.4968   14.2457 C.ar    1  UNL1        0.0000
     89 C           2.4781    0.9888   15.5173 C.ar    1  UNL1        0.0000
     90 H           3.0303    1.8416   15.8761 H       1  UNL1        0.0000
     91 C           1.5280    0.3852   16.3228 C.ar    1  UNL1        0.0000
     92 H           1.3284    0.7857   17.3066 H       1  UNL1        0.0000
     93 C           0.8468   -0.7347   15.8831 C.ar    1  UNL1        0.0000
     94 H           0.1038   -1.2038   16.5111 H       1  UNL1        0.0000
     95 C           1.1351   -1.2591   14.6331 C.ar    1  UNL1        0.0000
     96 H           0.6203   -2.1437   14.2861 H       1  UNL1        0.0000
     97 C           2.0768   -0.6531   13.8262 C.ar    1  UNL1        0.0000
     98 H           2.2973   -1.0706   12.8538 H       1  UNL1        0.0000
@<TRIPOS>BOND
     1    75    73    1
     2    76    73    1
     3    51    49    1
     4    73    74    1
     5    73    70    1
     6    71    70    1
     7    52    49    1
     8    70    72    1
     9    70    20    1
    10    54    53    1
    11    19    17    1
    12    49    50    1
    13    49    53    1
    14    64    63    1
    15    53    55    1
    16    53    16    1
    17    66    63    1
    18    17    20    1
    19    17    18    1
    20    17    16    1
    21    20    10    1
    22    20    67    1
    23    63    65    1
    24    63    67    1
    25    46    45    1
    26    47    45    1
    27    16     9    1
    28    16    56    1
    29    48    45    1
    30    45    42    1
    31    10     9   ar
    32    10     4   ar
    33     1     4    1
    34     1     2    1
    35    79    78    1
    36    67    69    1
    37    67    68    1
    38    81    80    1
    39     9     7   ar
    40    57    56    1
    41    26    25    1
    42    98    97    1
    43    78    80   ar
    44    78    77   ar
    45     4     5   ar
    46    80    82   ar
    47    56    58    1
    48    56    59    1
    49     3    77    1
    50     3     2    1
    51     3    88    1
    52    77    86   ar
    53     7     8    1
    54     7     6   ar
    55    82    83    1
    56    82    84   ar
    57     5     6   ar
    58     5    11    1
    59    97    88   ar
    60    97    95   ar
    61    42    43    1
    62    42    44    1
    63    42    15    1
    64    25    27    1
    65    25    21    1
    66    25    11    1
    67    23    21    1
    68    24    21    1
    69    86    84   ar
    70    86    87    1
    71     6    15    1
    72    84    85    1
    73    62    59    1
    74    88    89   ar
    75    96    95    1
    76    14    12    1
    77    21    22    1
    78    59    60    1
    79    59    61    1
    80    95    93   ar
    81    11    12    1
    82    11    28    1
    83    15    12    1
    84    15    39    1
    85    12    13    1
    86    89    90    1
    87    89    91   ar
    88    29    28    1
    89    41    39    1
    90    93    91   ar
    91    93    94    1
    92    28    30    1
    93    28    31    1
    94    39    40    1
    95    39    35    1
    96    91    92    1
    97    36    35    1
    98    34    31    1
    99    35    38    1
   100    35    37    1
   101    31    32    1
   102    31    33    1
   103     1     3    0
