@<TRIPOS>MOLECULE
1,4
 97 100 0 0 0
SMALL
GASTEIGER

@<TRIPOS>ATOM
      1 SI          2.3975    6.2424   12.6382 Si      1  UNL1        0.0000
      2 N           2.3134    4.7960   11.6662 N.pl3   1  UNL1        0.0000
      3 N           3.4026    2.8340   12.0599 N.2     1  UNL1        0.0000
      4 C           2.9339    3.8948   12.5340 C.2     1  UNL1        0.0000
      5 C           2.0632    4.3894   10.2868 C.3     1  UNL1        0.0000
      6 H           2.9064    3.7454   10.0053 H       1  UNL1        0.0000
      7 C           4.2405    1.8841   12.7275 C.3     1  UNL1        0.0000
      8 H           4.1828    1.9979   13.8240 H       1  UNL1        0.0000
      9 C           2.5014    7.8194   11.5576 C.ar    1  UNL1        0.0000
     10 C           3.7229    8.2551   11.0114 C.ar    1  UNL1        0.0000
     11 C           3.7641    9.3814   10.1936 C.ar    1  UNL1        0.0000
     12 C           2.6307   10.1217    9.9216 C.ar    1  UNL1        0.0000
     13 H           2.6739   10.9794    9.2680 H       1  UNL1        0.0000
     14 C           1.4478    9.7555   10.5307 C.ar    1  UNL1        0.0000
     15 C           1.3758    8.6253   11.3364 C.ar    1  UNL1        0.0000
     16 C           5.1297    7.7233   11.2434 C.3     1  UNL1        0.0000
     17 C           6.0240    8.6430   10.3690 C.3     1  UNL1        0.0000
     18 H           6.7750    9.1259   10.9911 H       1  UNL1        0.0000
     19 H           6.5544    8.0559    9.6214 H       1  UNL1        0.0000
     20 C           5.1419    9.6996    9.6766 C.3     1  UNL1        0.0000
     21 C           0.1468   10.5068   10.4336 C.3     1  UNL1        0.0000
     22 C          -0.7948    9.6922   11.3434 C.3     1  UNL1        0.0000
     23 H          -1.1666   10.3121   12.1571 H       1  UNL1        0.0000
     24 H          -1.6597    9.3594   10.7735 H       1  UNL1        0.0000
     25 C          -0.0200    8.4779   11.9185 C.3     1  UNL1        0.0000
     26 C           5.1672    9.1774   13.3831 C.3     1  UNL1        0.0000
     27 H           5.7573    9.9880   12.9628 H       1  UNL1        0.0000
     28 H           5.3755    9.1235   14.4484 H       1  UNL1        0.0000
     29 H           4.1145    9.4161   13.2541 H       1  UNL1        0.0000
     30 C           5.5129    7.8441   12.7327 C.3     1  UNL1        0.0000
     31 H           5.0161    7.0440   13.2861 H       1  UNL1        0.0000
     32 H           6.5880    7.6854   12.8254 H       1  UNL1        0.0000
     33 C           5.3064    6.2580   10.8004 C.3     1  UNL1        0.0000
     34 H           4.5932    5.6249   11.3243 H       1  UNL1        0.0000
     35 H           5.0921    6.1917    9.7314 H       1  UNL1        0.0000
     36 C           6.6970    5.6833   11.0568 C.3     1  UNL1        0.0000
     37 H           7.4805    6.3292   10.6681 H       1  UNL1        0.0000
     38 H           6.7817    4.7151   10.5685 H       1  UNL1        0.0000
     39 H           6.8642    5.5363   12.1195 H       1  UNL1        0.0000
     40 C           4.5398    8.3290    7.5783 C.3     1  UNL1        0.0000
     41 H           5.0571    7.4390    7.9263 H       1  UNL1        0.0000
     42 H           4.5867    8.3417    6.4912 H       1  UNL1        0.0000
     43 H           3.4962    8.2591    7.8761 H       1  UNL1        0.0000
     44 C           5.1815    9.5926    8.1388 C.3     1  UNL1        0.0000
     45 H           4.6644   10.4586    7.7189 H       1  UNL1        0.0000
     46 H           6.2213    9.6353    7.8101 H       1  UNL1        0.0000
     47 C           5.5248   11.1334   10.0978 C.3     1  UNL1        0.0000
     48 H           4.7862   11.8294    9.6946 H       1  UNL1        0.0000
     49 H           5.4635   11.1965   11.1859 H       1  UNL1        0.0000
     50 C           6.9104   11.5840    9.6474 C.3     1  UNL1        0.0000
     51 H           7.6763   10.8783    9.9589 H       1  UNL1        0.0000
     52 H           7.1423   12.5514   10.0882 H       1  UNL1        0.0000
     53 H           6.9584   11.6877    8.5667 H       1  UNL1        0.0000
     54 C          -0.8761   12.8268   10.9466 C.3     1  UNL1        0.0000
     55 H          -1.1787   13.0550    9.9283 H       1  UNL1        0.0000
     56 H          -0.6614   13.7664   11.4514 H       1  UNL1        0.0000
     57 H          -1.7125   12.3535   11.4552 H       1  UNL1        0.0000
     58 C           0.3631   11.9382   10.9681 C.3     1  UNL1        0.0000
     59 H           0.7358   11.8656   11.9919 H       1  UNL1        0.0000
     60 H           1.1457   12.4183   10.3772 H       1  UNL1        0.0000
     61 C          -0.3427   10.5720    8.9740 C.3     1  UNL1        0.0000
     62 H          -1.3581   10.9720    8.9581 H       1  UNL1        0.0000
     63 H           0.2973   11.2696    8.4292 H       1  UNL1        0.0000
     64 C          -0.3286    9.2337    8.2443 C.3     1  UNL1        0.0000
     65 H           0.6635    8.7890    8.2702 H       1  UNL1        0.0000
     66 H          -0.6144    9.3771    7.2043 H       1  UNL1        0.0000
     67 H          -1.0321    8.5351    8.6901 H       1  UNL1        0.0000
     68 C          -2.1047    6.9355   11.9116 C.3     1  UNL1        0.0000
     69 H          -2.1824    6.9058   12.9944 H       1  UNL1        0.0000
     70 H          -2.4674    5.9857   11.5233 H       1  UNL1        0.0000
     71 H          -2.7661    7.7186   11.5494 H       1  UNL1        0.0000
     72 C          -0.6665    7.1592   11.4540 C.3     1  UNL1        0.0000
     73 H          -0.6475    7.1364   10.3624 H       1  UNL1        0.0000
     74 H          -0.0533    6.3300   11.8128 H       1  UNL1        0.0000
     75 C           0.0166    8.5174   13.4581 C.3     1  UNL1        0.0000
     76 H          -1.0057    8.6177   13.8298 H       1  UNL1        0.0000
     77 H           0.4156    7.5664   13.8177 H       1  UNL1        0.0000
     78 C           0.8616    9.6373   14.0495 C.3     1  UNL1        0.0000
     79 H           1.8833    9.5847   13.6839 H       1  UNL1        0.0000
     80 H           0.8841    9.5488   15.1332 H       1  UNL1        0.0000
     81 H           0.4548   10.6138   13.7998 H       1  UNL1        0.0000
     82 C           3.8215    0.4718   12.3139 C.3     1  UNL1        0.0000
     83 H           2.7862    0.2727   12.5739 H       1  UNL1        0.0000
     84 H           4.4542   -0.2647   12.8037 H       1  UNL1        0.0000
     85 H           3.9268    0.3654   11.2369 H       1  UNL1        0.0000
     86 C           5.6883    2.1261   12.2896 C.3     1  UNL1        0.0000
     87 H           5.7603    2.0566   11.2066 H       1  UNL1        0.0000
     88 H           6.3418    1.3812   12.7366 H       1  UNL1        0.0000
     89 H           6.0176    3.1128   12.5981 H       1  UNL1        0.0000
     90 C           1.9814    5.5675    9.3281 C.3     1  UNL1        0.0000
     91 H           1.1388    6.2066    9.5711 H       1  UNL1        0.0000
     92 H           1.8537    5.1970    8.3134 H       1  UNL1        0.0000
     93 H           2.8870    6.1624    9.3691 H       1  UNL1        0.0000
     94 C           0.7825    3.5547   10.2277 C.3     1  UNL1        0.0000
     95 H           0.8698    2.6998   10.8927 H       1  UNL1        0.0000
     96 H           0.6169    3.1889    9.2175 H       1  UNL1        0.0000
     97 H          -0.0756    4.1540   10.5264 H       1  UNL1        0.0000
@<TRIPOS>BOND
     1    42    40    1
     2    66    64    1
     3    40    43    1
     4    40    41    1
     5    40    44    1
     6    45    44    1
     7    46    44    1
     8    44    20    1
     9    64    65    1
    10    64    67    1
    11    64    61    1
    12    92    90    1
    13    63    61    1
    14    53    50    1
    15    62    61    1
    16    61    21    1
    17    96    94    1
    18    13    12    1
    19    90    93    1
    20    90    91    1
    21    90     5    1
    22    19    17    1
    23    50    51    1
    24    50    52    1
    25    50    47    1
    26    20    47    1
    27    20    11    1
    28    20    17    1
    29    48    47    1
    30    35    33    1
    31    12    11   ar
    32    12    14   ar
    33    55    54    1
    34     6     5    1
    35    47    49    1
    36    11    10   ar
    37    94     5    1
    38    94    97    1
    39    94    95    1
    40     5     2    1
    41    73    72    1
    42    17    18    1
    43    17    16    1
    44    60    58    1
    45    21    14    1
    46    21    58    1
    47    21    22    1
    48    14    15   ar
    49    38    36    1
    50    37    36    1
    51    24    22    1
    52    33    36    1
    53    33    16    1
    54    33    34    1
    55    54    58    1
    56    54    56    1
    57    54    57    1
    58    58    59    1
    59    10    16    1
    60    10     9   ar
    61    36    39    1
    62    87    86    1
    63    85    82    1
    64    16    30    1
    65    15     9   ar
    66    15    25    1
    67    22    25    1
    68    22    23    1
    69    72    74    1
    70    72    68    1
    71    72    25    1
    72    70    68    1
    73    71    68    1
    74     9     1    1
    75     2     4    1
    76     2     1    1
    77    68    69    1
    78    25    75    1
    79     3     4    2
    80     3     7    1
    81    86    89    1
    82    86     7    1
    83    86    88    1
    84    82    83    1
    85    82     7    1
    86    82    84    1
    87     7     8    1
    88    30    32    1
    89    30    31    1
    90    30    26    1
    91    27    26    1
    92    29    26    1
    93    26    28    1
    94    75    77    1
    95    75    76    1
    96    75    78    1
    97    79    78    1
    98    81    78    1
    99    78    80    1
   100     1     4    0
