@<TRIPOS>MOLECULE
1,2
 19 18 0 0 0
SMALL
GASTEIGER

@<TRIPOS>ATOM
      1 SI          2.4333    7.3449   -0.0172 Si      1  UNL1        0.0000
      2 C           1.0152    9.9301    0.5285 C.3     1  UNL1        0.0000
      3 H           0.8675   10.6612   -0.2814 H       1  UNL1        0.0000
      4 H           0.4664   10.3410    1.3890 H       1  UNL1        0.0000
      5 C           2.4745    9.9670    0.8679 C.2     1  UNL1        0.0000
      6 C           3.2549    8.9106    0.6762 C.2     1  UNL1        0.0000
      7 H           4.3124    8.9664    0.9036 H       1  UNL1        0.0000
      8 C           2.9728   11.2777    1.4168 C.3     1  UNL1        0.0000
      9 H           2.7786   12.0839    0.7089 H       1  UNL1        0.0000
     10 H           4.0419   11.2392    1.6139 H       1  UNL1        0.0000
     11 H           2.4571   11.5239    2.3466 H       1  UNL1        0.0000
     12 C           3.2290    5.9328    1.0592 C.3     1  UNL1        0.0000
     13 H           3.2155    6.1734    2.1176 H       1  UNL1        0.0000
     14 H           4.2683    5.8163    0.7704 H       1  UNL1        0.0000
     15 H           2.7478    4.9701    0.9214 H       1  UNL1        0.0000
     16 C           3.2960    6.9913   -1.7174 C.3     1  UNL1        0.0000
     17 H           4.3732    7.0703   -1.6118 H       1  UNL1        0.0000
     18 H           2.9819    7.7023   -2.4720 H       1  UNL1        0.0000
     19 H           3.0763    5.9946   -2.0871 H       1  UNL1        0.0000
@<TRIPOS>BOND
     1    18    16    1
     2    19    16    1
     3    16    17    1
     4    16     1    1
     5     3     2    1
     6     1     6    1
     7     1    12    1
     8     2     5    1
     9     2     4    1
    10     6     5    2
    11     6     7    1
    12     9     8    1
    13    14    12    1
    14     5     8    1
    15    15    12    1
    16    12    13    1
    17     8    10    1
    18     8    11    1
