@<TRIPOS>MOLECULE
1,3
 102 107 0 0 0
SMALL
GASTEIGER

@<TRIPOS>ATOM
      1 SI          8.5547    3.1660    3.7961 Si      1  UNL1        0.0000
      2 O          10.1720    3.8587    3.8577 O.3     1  UNL1        0.0000
      3 C           9.9838    4.9064    4.6272 C.3     1  UNL1        0.0000
      4 O           8.1348    3.7540    2.3048 O.3     1  UNL1        0.0000
      5 C           8.6257    4.9257    1.7174 C.3     1  UNL1        0.0000
      6 H           8.7953    5.6909    2.4904 H       1  UNL1        0.0000
      7 H           7.8401    5.2859    1.0386 H       1  UNL1        0.0000
      8 C           8.5390    1.2446    3.8394 C.ar    1  UNL1        0.0000
      9 C          11.0762    5.8689    4.5957 C.ar    1  UNL1        0.0000
     10 C          12.0547    5.7993    3.5946 C.ar    1  UNL1        0.0000
     11 H          11.9912    5.0122    2.8593 H       1  UNL1        0.0000
     12 C          13.0776    6.7236    3.5466 C.ar    1  UNL1        0.0000
     13 H          13.8199    6.6593    2.7646 H       1  UNL1        0.0000
     14 C          13.1567    7.7274    4.4997 C.ar    1  UNL1        0.0000
     15 H          13.9578    8.4506    4.4609 H       1  UNL1        0.0000
     16 C          12.2111    7.7920    5.5126 C.ar    1  UNL1        0.0000
     17 H          12.2839    8.5608    6.2684 H       1  UNL1        0.0000
     18 C          11.1800    6.8756    5.5613 C.ar    1  UNL1        0.0000
     19 H          10.4633    6.9045    6.3667 H       1  UNL1        0.0000
     20 C           9.8964    4.7417    0.9318 C.ar    1  UNL1        0.0000
     21 C          10.6718    5.8548    0.6274 C.ar    1  UNL1        0.0000
     22 H          10.3718    6.8306    0.9841 H       1  UNL1        0.0000
     23 C          11.8271    5.7186   -0.1199 C.ar    1  UNL1        0.0000
     24 H          12.4249    6.5890   -0.3476 H       1  UNL1        0.0000
     25 C          12.2173    4.4684   -0.5713 C.ar    1  UNL1        0.0000
     26 H          13.1196    4.3616   -1.1554 H       1  UNL1        0.0000
     27 C          11.4467    3.3589   -0.2709 C.ar    1  UNL1        0.0000
     28 H          11.7439    2.3840   -0.6285 H       1  UNL1        0.0000
     29 C          10.2903    3.4929    0.4783 C.ar    1  UNL1        0.0000
     30 H           9.6902    2.6307    0.7211 H       1  UNL1        0.0000
     31 C           9.5505    0.4596    4.4344 C.ar    1  UNL1        0.0000
     32 C           9.3041   -0.8533    4.8298 C.ar    1  UNL1        0.0000
     33 C           8.0606   -1.4316    4.6952 C.ar    1  UNL1        0.0000
     34 H           7.8707   -2.4292    5.0579 H       1  UNL1        0.0000
     35 C           7.0868   -0.7121    4.0367 C.ar    1  UNL1        0.0000
     36 C           7.3226    0.5805    3.5721 C.ar    1  UNL1        0.0000
     37 C          11.0119    0.7916    4.7125 C.3     1  UNL1        0.0000
     38 C          11.6333   -0.5581    5.1529 C.3     1  UNL1        0.0000
     39 H          12.2408   -0.9720    4.3513 H       1  UNL1        0.0000
     40 H          12.2888   -0.4130    6.0089 H       1  UNL1        0.0000
     41 C          10.4854   -1.5234    5.4821 C.3     1  UNL1        0.0000
     42 C           5.6794   -1.1795    3.7902 C.3     1  UNL1        0.0000
     43 C           5.2085   -0.2151    2.6894 C.3     1  UNL1        0.0000
     44 H           4.1706    0.0725    2.8507 H       1  UNL1        0.0000
     45 H           5.2595   -0.7058    1.7204 H       1  UNL1        0.0000
     46 C           6.1480    1.0188    2.7034 C.3     1  UNL1        0.0000
     47 C          12.4842    2.3962    6.1160 C.3     1  UNL1        0.0000
     48 H          12.7484    3.0693    5.3046 H       1  UNL1        0.0000
     49 H          13.2534    1.6315    6.2009 H       1  UNL1        0.0000
     50 H          12.4723    2.9730    7.0379 H       1  UNL1        0.0000
     51 C          11.1066    1.7835    5.8894 C.3     1  UNL1        0.0000
     52 H          10.3918    2.5885    5.7387 H       1  UNL1        0.0000
     53 H          10.7989    1.2635    6.7983 H       1  UNL1        0.0000
     54 C          11.7404    1.3249    3.4656 C.3     1  UNL1        0.0000
     55 H          11.4163    2.3433    3.2739 H       1  UNL1        0.0000
     56 H          12.8111    1.3470    3.6788 H       1  UNL1        0.0000
     57 C          11.5124    0.5054    2.2013 C.3     1  UNL1        0.0000
     58 H          10.4528    0.4404    1.9735 H       1  UNL1        0.0000
     59 H          11.9000   -0.5052    2.2956 H       1  UNL1        0.0000
     60 H          12.0186    0.9807    1.3644 H       1  UNL1        0.0000
     61 C          10.7182   -3.0748    3.4297 C.3     1  UNL1        0.0000
     62 H          11.5878   -2.5966    2.9874 H       1  UNL1        0.0000
     63 H           9.8269   -2.6181    3.0075 H       1  UNL1        0.0000
     64 H          10.7372   -4.1252    3.1457 H       1  UNL1        0.0000
     65 C          10.7249   -2.9482    4.9492 C.3     1  UNL1        0.0000
     66 H          11.6847   -3.3059    5.3269 H       1  UNL1        0.0000
     67 H           9.9480   -3.6011    5.3535 H       1  UNL1        0.0000
     68 C          10.1885   -1.5927    6.9978 C.3     1  UNL1        0.0000
     69 H          10.0051   -0.5788    7.3575 H       1  UNL1        0.0000
     70 H           9.2603   -2.1522    7.1383 H       1  UNL1        0.0000
     71 C          11.2776   -2.2360    7.8492 C.3     1  UNL1        0.0000
     72 H          12.2381   -1.7493    7.6988 H       1  UNL1        0.0000
     73 H          11.3877   -3.2923    7.6182 H       1  UNL1        0.0000
     74 H          11.0173   -2.1469    8.9019 H       1  UNL1        0.0000
     75 C           5.3500   -1.5781    6.3460 C.3     1  UNL1        0.0000
     76 H           6.3243   -1.1687    6.5994 H       1  UNL1        0.0000
     77 H           5.4307   -2.6591    6.2637 H       1  UNL1        0.0000
     78 H           4.6655   -1.3567    7.1627 H       1  UNL1        0.0000
     79 C           4.8250   -0.9483    5.0614 C.3     1  UNL1        0.0000
     80 H           4.7538    0.1268    5.2310 H       1  UNL1        0.0000
     81 H           3.8170   -1.3236    4.8627 H       1  UNL1        0.0000
     82 C           5.5718   -2.6564    3.3759 C.3     1  UNL1        0.0000
     83 H           5.8305   -3.2772    4.2343 H       1  UNL1        0.0000
     84 H           4.5288   -2.8676    3.1250 H       1  UNL1        0.0000
     85 C           6.4622   -3.0681    2.2086 C.3     1  UNL1        0.0000
     86 H           7.4857   -2.7427    2.3754 H       1  UNL1        0.0000
     87 H           6.1141   -2.6447    1.2698 H       1  UNL1        0.0000
     88 H           6.4568   -4.1512    2.1032 H       1  UNL1        0.0000
     89 C           7.5880    0.3182    0.6788 C.3     1  UNL1        0.0000
     90 H           7.1344   -0.6646    0.5875 H       1  UNL1        0.0000
     91 H           8.4705    0.2213    1.3042 H       1  UNL1        0.0000
     92 H           7.8988    0.6390   -0.3139 H       1  UNL1        0.0000
     93 C           6.6195    1.3364    1.2696 C.3     1  UNL1        0.0000
     94 H           5.7414    1.3940    0.6230 H       1  UNL1        0.0000
     95 H           7.1025    2.3094    1.2774 H       1  UNL1        0.0000
     96 C           5.4048    2.2285    3.2930 C.3     1  UNL1        0.0000
     97 H           4.9870    1.9373    4.2584 H       1  UNL1        0.0000
     98 H           6.1312    3.0158    3.4840 H       1  UNL1        0.0000
     99 C           4.2919    2.7805    2.4051 C.3     1  UNL1        0.0000
    100 H           3.6170    1.9931    2.0786 H       1  UNL1        0.0000
    101 H           4.7017    3.2647    1.5229 H       1  UNL1        0.0000
    102 H           3.7011    3.5154    2.9493 H       1  UNL1        0.0000
@<TRIPOS>BOND
     1    26    25    1
     2    28    27    1
     3    25    27   ar
     4    25    23   ar
     5    24    23    1
     6    92    89    1
     7    27    29   ar
     8    23    21   ar
     9    29    30    1
    10    29    20   ar
    11    90    89    1
    12    94    93    1
    13    21    20   ar
    14    21    22    1
    15    89    93    1
    16    89    91    1
    17    20     5    1
    18     7     5    1
    19    93    95    1
    20    93    46    1
    21    87    85    1
    22    60    57    1
    23   101    99    1
    24     5     4    1
    25     5     6    1
    26    45    43    1
    27    58    57    1
    28   100    99    1
    29    88    85    1
    30    57    59    1
    31    57    54    1
    32    85    86    1
    33    85    82    1
    34     4     1    1
    35    99   102    1
    36    99    96    1
    37    43    46    1
    38    43    44    1
    39    43    42    1
    40    46    96    1
    41    46    36    1
    42    13    12    1
    43    11    10    1
    44    62    61    1
    45    63    61    1
    46    84    82    1
    47    64    61    1
    48    55    54    1
    49    96    98    1
    50    96    97    1
    51    82    42    1
    52    82    83    1
    53    61    65    1
    54    54    56    1
    55    54    37    1
    56    12    10   ar
    57    12    14   ar
    58    36     8   ar
    59    36    35   ar
    60    10     9   ar
    61    42    35    1
    62    42    79    1
    63     1     8    1
    64     1     2    1
    65     8    31   ar
    66     2     3    1
    67    35    33   ar
    68    39    38    1
    69    31    37    1
    70    31    32   ar
    71    15    14    1
    72    14    16   ar
    73     9     3    1
    74     9    18   ar
    75    33    32   ar
    76    33    34    1
    77    37    38    1
    78    37    51    1
    79    32    41    1
    80    81    79    1
    81    65    66    1
    82    65    67    1
    83    65    41    1
    84    79    80    1
    85    79    75    1
    86    38    41    1
    87    38    40    1
    88    48    47    1
    89    41    68    1
    90    16    18   ar
    91    16    17    1
    92    18    19    1
    93    52    51    1
    94    51    47    1
    95    51    53    1
    96    47    49    1
    97    47    50    1
    98    77    75    1
    99    75    76    1
   100    75    78    1
   101    68    70    1
   102    68    69    1
   103    68    71    1
   104    73    71    1
   105    72    71    1
   106    71    74    1
   107     1     3    0
