@<TRIPOS>MOLECULE
1,2
 108 112 0 0 0
SMALL
GASTEIGER

@<TRIPOS>ATOM
      1 SI          4.2589   12.0920    3.8031 Si      1  UNL1        0.0000
      2 C           6.0751   12.1912    2.1944 C.3     1  UNL1        0.0000
      3 O           4.7765   12.2323    2.0958 O.3     1  UNL1        0.0000
      4 O           3.8904   13.6847    4.0307 O.3     1  UNL1        0.0000
      5 C           4.5084   14.8130    3.4879 C.3     1  UNL1        0.0000
      6 H           5.5459   14.5698    3.2074 H       1  UNL1        0.0000
      7 H           4.5368   15.5738    4.2798 H       1  UNL1        0.0000
      8 C           2.6633   11.0450    4.1105 C.ar    1  UNL1        0.0000
      9 C           6.7605   12.5381    0.8804 C.3     1  UNL1        0.0000
     10 C           6.2384   11.5811   -0.2031 C.3     1  UNL1        0.0000
     11 H           6.5100   10.5570    0.0341 H       1  UNL1        0.0000
     12 H           6.6757   11.8432   -1.1643 H       1  UNL1        0.0000
     13 H           5.1571   11.6499   -0.2786 H       1  UNL1        0.0000
     14 C           6.3887   13.9737    0.4769 C.3     1  UNL1        0.0000
     15 H           6.7958   14.1959   -0.5072 H       1  UNL1        0.0000
     16 H           6.7954   14.6951    1.1829 H       1  UNL1        0.0000
     17 H           5.3086   14.0915    0.4430 H       1  UNL1        0.0000
     18 C           8.2790   12.4111    0.9675 C.3     1  UNL1        0.0000
     19 H           8.5678   11.4047    1.2582 H       1  UNL1        0.0000
     20 H           8.6784   13.1176    1.6858 H       1  UNL1        0.0000
     21 H           8.7210   12.6256   -0.0039 H       1  UNL1        0.0000
     22 C           3.7904   15.3819    2.2909 C.ar    1  UNL1        0.0000
     23 C           2.6318   14.8056    1.7900 C.ar    1  UNL1        0.0000
     24 H           2.2322   13.9248    2.2651 H       1  UNL1        0.0000
     25 C           1.9978   15.3513    0.6940 C.ar    1  UNL1        0.0000
     26 H           1.0945   14.9148    0.2986 H       1  UNL1        0.0000
     27 C           2.5071   16.4901    0.0708 C.ar    1  UNL1        0.0000
     28 C           3.6648   17.0743    0.5735 C.ar    1  UNL1        0.0000
     29 H           4.0866   17.9577    0.1208 H       1  UNL1        0.0000
     30 C           4.2920   16.5194    1.6750 C.ar    1  UNL1        0.0000
     31 H           5.1900   16.9845    2.0579 H       1  UNL1        0.0000
     32 O           1.8044   16.9464   -1.0050 O.3     1  UNL1        0.0000
     33 C           2.2634   18.0977   -1.6680 C.3     1  UNL1        0.0000
     34 H           3.2636   17.9493   -2.0886 H       1  UNL1        0.0000
     35 H           2.2743   18.9682   -1.0036 H       1  UNL1        0.0000
     36 H           1.5566   18.2736   -2.4776 H       1  UNL1        0.0000
     37 C           2.0126   11.1439    5.3634 C.ar    1  UNL1        0.0000
     38 C           1.1562   10.1422    5.8132 C.ar    1  UNL1        0.0000
     39 C           0.8904    9.0214    5.0582 C.ar    1  UNL1        0.0000
     40 H           0.2716    8.2231    5.4374 H       1  UNL1        0.0000
     41 C           1.3938    8.9822    3.7789 C.ar    1  UNL1        0.0000
     42 C           2.2596    9.9630    3.2963 C.ar    1  UNL1        0.0000
     43 C           1.9883   12.2913    6.3684 C.3     1  UNL1        0.0000
     44 C           1.0595   11.8007    7.5114 C.3     1  UNL1        0.0000
     45 H           1.5932   11.7865    8.4599 H       1  UNL1        0.0000
     46 H           0.2204   12.4847    7.6252 H       1  UNL1        0.0000
     47 C           0.5587   10.3893    7.1722 C.3     1  UNL1        0.0000
     48 C           1.0890    7.8896    2.7905 C.3     1  UNL1        0.0000
     49 C           1.6131    8.4911    1.4823 C.3     1  UNL1        0.0000
     50 H           0.7795    8.8868    0.9067 H       1  UNL1        0.0000
     51 H           2.0953    7.7401    0.8650 H       1  UNL1        0.0000
     52 C           2.5906    9.6365    1.8410 C.3     1  UNL1        0.0000
     53 C           3.4146   13.7629    7.9243 C.3     1  UNL1        0.0000
     54 H           2.6316   13.6879    8.6748 H       1  UNL1        0.0000
     55 H           3.2882   14.7037    7.3950 H       1  UNL1        0.0000
     56 H           4.3696   13.7953    8.4468 H       1  UNL1        0.0000
     57 C           3.3763   12.5818    6.9564 C.3     1  UNL1        0.0000
     58 H           3.7160   11.6793    7.4662 H       1  UNL1        0.0000
     59 H           4.0680   12.7664    6.1405 H       1  UNL1        0.0000
     60 C           1.4007   13.5575    5.7119 C.3     1  UNL1        0.0000
     61 H           1.2144   14.3010    6.4894 H       1  UNL1        0.0000
     62 H           2.1417   13.9583    5.0274 H       1  UNL1        0.0000
     63 C           0.1045   13.3295    4.9422 C.3     1  UNL1        0.0000
     64 H          -0.7110   13.0520    5.6057 H       1  UNL1        0.0000
     65 H           0.2266   12.5406    4.2049 H       1  UNL1        0.0000
     66 H          -0.1806   14.2438    4.4253 H       1  UNL1        0.0000
     67 C          -1.7201   10.6035    8.3768 C.3     1  UNL1        0.0000
     68 H          -1.3995   11.5395    8.8277 H       1  UNL1        0.0000
     69 H          -1.5556    9.8035    9.0937 H       1  UNL1        0.0000
     70 H          -2.7896   10.6684    8.1862 H       1  UNL1        0.0000
     71 C          -0.9802   10.3344    7.0704 C.3     1  UNL1        0.0000
     72 H          -1.2972   11.0643    6.3229 H       1  UNL1        0.0000
     73 H          -1.2761    9.3501    6.7024 H       1  UNL1        0.0000
     74 C           1.0412    9.3200    8.1726 C.3     1  UNL1        0.0000
     75 H           0.7197    9.6021    9.1771 H       1  UNL1        0.0000
     76 H           0.5535    8.3755    7.9213 H       1  UNL1        0.0000
     77 C           2.5490    9.0954    8.1832 C.3     1  UNL1        0.0000
     78 H           3.0721    9.9649    8.5730 H       1  UNL1        0.0000
     79 H           2.9190    8.8913    7.1812 H       1  UNL1        0.0000
     80 H           2.7905    8.2474    8.8212 H       1  UNL1        0.0000
     81 C          -1.3410    8.7639    2.6825 C.3     1  UNL1        0.0000
     82 H          -1.1876    9.3463    1.7784 H       1  UNL1        0.0000
     83 H          -1.1751    9.4151    3.5368 H       1  UNL1        0.0000
     84 H          -2.3779    8.4332    2.6954 H       1  UNL1        0.0000
     85 C          -0.4136    7.5541    2.7295 C.3     1  UNL1        0.0000
     86 H          -0.5937    6.9394    1.8452 H       1  UNL1        0.0000
     87 H          -0.6729    6.9545    3.6053 H       1  UNL1        0.0000
     88 C           1.8791    6.6324    3.2163 C.3     1  UNL1        0.0000
     89 H           2.9412    6.8802    3.2187 H       1  UNL1        0.0000
     90 H           1.6047    6.3873    4.2453 H       1  UNL1        0.0000
     91 C           1.6585    5.4010    2.3443 C.3     1  UNL1        0.0000
     92 H           1.8479    5.6191    1.2960 H       1  UNL1        0.0000
     93 H           0.6425    5.0262    2.4377 H       1  UNL1        0.0000
     94 H           2.3392    4.6096    2.6512 H       1  UNL1        0.0000
     95 C           4.4805    8.5078    0.4356 C.3     1  UNL1        0.0000
     96 H           4.2595    9.1541   -0.4092 H       1  UNL1        0.0000
     97 H           4.0049    7.5446    0.2698 H       1  UNL1        0.0000
     98 H           5.5539    8.3363    0.4653 H       1  UNL1        0.0000
     99 C           4.0497    9.1434    1.7549 C.3     1  UNL1        0.0000
    100 H           4.7014    9.9914    1.9501 H       1  UNL1        0.0000
    101 H           4.2203    8.4225    2.5564 H       1  UNL1        0.0000
    102 C           2.3611   10.8307    0.8974 C.3     1  UNL1        0.0000
    103 H           3.1497   11.5607    1.0535 H       1  UNL1        0.0000
    104 H           2.4325   10.4727   -0.1326 H       1  UNL1        0.0000
    105 C           1.0216   11.5363    1.0799 C.3     1  UNL1        0.0000
    106 H           0.8925   11.8496    2.1123 H       1  UNL1        0.0000
    107 H           0.1834   10.8973    0.8134 H       1  UNL1        0.0000
    108 H           0.9832   12.4157    0.4411 H       1  UNL1        0.0000
@<TRIPOS>BOND
     1    36    33    1
     2    34    33    1
     3    33    32    1
     4    33    35    1
     5    12    10    1
     6    32    27    1
     7    15    14    1
     8    96    95    1
     9    13    10    1
    10    10    11    1
    11    10     9    1
    12   104   102    1
    13    21    18    1
    14    27    28   ar
    15    27    25   ar
    16    29    28    1
    17    97    95    1
    18    26    25    1
    19    95    98    1
    20    95    99    1
    21   108   105    1
    22    17    14    1
    23    14     9    1
    24    14    16    1
    25    28    30   ar
    26    25    23   ar
    27   107   105    1
    28    51    49    1
    29     9    18    1
    30     9     2    1
    31   102   103    1
    32   102   105    1
    33   102    52    1
    34    50    49    1
    35    18    19    1
    36    18    20    1
    37   105   106    1
    38    92    91    1
    39    49    52    1
    40    49    48    1
    41    30    31    1
    42    30    22   ar
    43    99    52    1
    44    99   100    1
    45    99   101    1
    46    82    81    1
    47    23    24    1
    48    23    22   ar
    49    52    42    1
    50    86    85    1
    51     3     2    1
    52     3     1    1
    53    22     5    1
    54    91    93    1
    55    91    94    1
    56    91    88    1
    57    81    84    1
    58    81    85    1
    59    81    83    1
    60    85    48    1
    61    85    87    1
    62    48    88    1
    63    48    41    1
    64     6     5    1
    65    88    89    1
    66    88    90    1
    67    42    41   ar
    68    42     8   ar
    69     5     4    1
    70     5     7    1
    71    41    39   ar
    72     1     4    1
    73     1     8    1
    74     8    37   ar
    75    65    63    1
    76    66    63    1
    77    63    64    1
    78    63    60    1
    79    62    60    1
    80    39    40    1
    81    39    38   ar
    82    37    38   ar
    83    37    43    1
    84    60    43    1
    85    60    61    1
    86    38    47    1
    87    59    57    1
    88    72    71    1
    89    43    57    1
    90    43    44    1
    91    73    71    1
    92    57    58    1
    93    57    53    1
    94    71    47    1
    95    71    67    1
    96    47    44    1
    97    47    74    1
    98    79    77    1
    99    55    53    1
   100    44    46    1
   101    44    45    1
   102    76    74    1
   103    53    56    1
   104    53    54    1
   105    74    77    1
   106    74    75    1
   107    77    78    1
   108    77    80    1
   109    70    67    1
   110    67    68    1
   111    67    69    1
   112     1     2    0
