@<TRIPOS>MOLECULE
1,3
 32 31 0 0 0
SMALL
GASTEIGER

@<TRIPOS>ATOM
      1 SI          3.8208    4.1344    3.4908 Si      1  UNL1        0.0000
      2 SI          8.8904    5.8788    2.4866 Si      1  UNL1        0.0000
      3 C           5.5939    3.6036    3.9161 C.3     1  UNL1        0.0000
      4 H           5.8679    3.7008    4.9654 H       1  UNL1        0.0000
      5 C           6.5682    4.3057    3.1042 C.2     1  UNL1        0.0000
      6 H           6.4095    4.2728    2.0326 H       1  UNL1        0.0000
      7 C           7.6288    4.9955    3.5542 C.2     1  UNL1        0.0000
      8 H           7.7477    5.0720    4.6308 H       1  UNL1        0.0000
      9 C           2.4787    3.0585    4.3457 C.3     1  UNL1        0.0000
     10 H           1.5514    3.1130    3.7843 H       1  UNL1        0.0000
     11 H           2.2665    3.3882    5.3564 H       1  UNL1        0.0000
     12 H           2.7644    2.0056    4.3881 H       1  UNL1        0.0000
     13 C           3.4909    5.9598    3.9554 C.3     1  UNL1        0.0000
     14 H           4.2161    6.6078    3.4754 H       1  UNL1        0.0000
     15 H           3.5751    6.1139    5.0261 H       1  UNL1        0.0000
     16 H           2.5004    6.2830    3.6522 H       1  UNL1        0.0000
     17 C           3.5189    3.9289    1.6079 C.3     1  UNL1        0.0000
     18 H           4.2503    4.4692    1.0165 H       1  UNL1        0.0000
     19 H           2.5372    4.2981    1.3269 H       1  UNL1        0.0000
     20 H           3.5598    2.8786    1.3226 H       1  UNL1        0.0000
     21 C           8.7765    7.7693    2.7644 C.3     1  UNL1        0.0000
     22 H           7.7992    8.1519    2.4858 H       1  UNL1        0.0000
     23 H           9.5185    8.3047    2.1795 H       1  UNL1        0.0000
     24 H           8.9394    8.0214    3.8079 H       1  UNL1        0.0000
     25 C           8.6097    5.5160    0.6351 C.3     1  UNL1        0.0000
     26 H           8.7257    4.4576    0.4242 H       1  UNL1        0.0000
     27 H           9.3214    6.0525    0.0149 H       1  UNL1        0.0000
     28 H           7.6143    5.8143    0.3207 H       1  UNL1        0.0000
     29 C          10.6540    5.3132    2.9603 C.3     1  UNL1        0.0000
     30 H          10.8456    5.4673    4.0182 H       1  UNL1        0.0000
     31 H          11.4090    5.8652    2.4089 H       1  UNL1        0.0000
     32 H          10.7979    4.2580    2.7489 H       1  UNL1        0.0000
@<TRIPOS>BOND
     1    27    25    1
     2    28    25    1
     3    26    25    1
     4    25     2    1
     5    18    17    1
     6    20    17    1
     7    19    17    1
     8    17     1    1
     9     6     5    1
    10    23    21    1
    11    31    29    1
    12    22    21    1
    13     2    21    1
    14     2    29    1
    15     2     7    1
    16    32    29    1
    17    21    24    1
    18    29    30    1
    19     5     7    2
    20     5     3    1
    21    14    13    1
    22     1     3    1
    23     1    13    1
    24     1     9    1
    25     7     8    1
    26    16    13    1
    27    10     9    1
    28     3     4    1
    29    13    15    1
    30     9    12    1
    31     9    11    1
