@<TRIPOS>MOLECULE
4,5,6,7,11,12,28,29,34,35,36,40
 45 48 0 0 0
SMALL
GASTEIGER

@<TRIPOS>ATOM
      1 SI          6.3064   -0.3077    3.7209 Si      1  UNL1        0.0000
      2 C           7.2729   -1.4992    2.5792 C.3     1  UNL1        0.0000
      3 C           5.6310    0.7565    0.3573 C.3     1  UNL1        0.0000
      4 C           5.1444    0.9518    2.9064 C.3     1  UNL1        0.0000
      5 C           5.0769    1.4349    1.5732 C.2     1  UNL1        0.0000
      6 C           4.3262    2.6174    1.5189 C.2     1  UNL1        0.0000
      7 C           3.8752    2.9315    2.8247 C.3     1  UNL1        0.0000
      8 C           3.0393    3.9374    3.3451 C.2     1  UNL1        0.0000
      9 C           2.7478    3.9475    4.6880 C.2     1  UNL1        0.0000
     10 C           3.2585    2.9659    5.5540 C.2     1  UNL1        0.0000
     11 C           4.0684    1.9476    5.0949 C.2     1  UNL1        0.0000
     12 C           4.3915    1.8868    3.7137 C.3     1  UNL1        0.0000
     13 H           7.9280   -1.0012    1.8752 H       1  UNL1        0.0000
     14 H           6.5938   -2.1338    2.0195 H       1  UNL1        0.0000
     15 H           7.8932   -2.1488    3.1884 H       1  UNL1        0.0000
     16 H           6.4396    1.3420   -0.0835 H       1  UNL1        0.0000
     17 H           6.0026   -0.2330    0.6007 H       1  UNL1        0.0000
     18 H           4.8520    0.6572   -0.3978 H       1  UNL1        0.0000
     19 H           4.0645    3.1504    0.6187 H       1  UNL1        0.0000
     20 H           2.6108    4.6779    2.6831 H       1  UNL1        0.0000
     21 H           2.0973    4.7090    5.0921 H       1  UNL1        0.0000
     22 H           2.9835    2.9989    6.5991 H       1  UNL1        0.0000
     23 H           4.3782    1.1544    5.7654 H       1  UNL1        0.0000
     24 C           5.3401   -1.4993    4.8625 C.3     1  UNL1        0.0000
     25 H           4.6848   -1.0014    5.5665 H       1  UNL1        0.0000
     26 H           6.0193   -2.1338    5.4223 H       1  UNL1        0.0000
     27 H           4.7198   -2.1489    4.2534 H       1  UNL1        0.0000
     28 C           7.4683    0.9520    4.5352 C.3     1  UNL1        0.0000
     29 C           7.5358    1.4352    5.8683 C.2     1  UNL1        0.0000
     30 C           6.9817    0.7570    7.0843 C.3     1  UNL1        0.0000
     31 H           6.1736    1.3427    7.5255 H       1  UNL1        0.0000
     32 H           6.6094   -0.2322    6.8409 H       1  UNL1        0.0000
     33 H           7.7608    0.6569    7.8391 H       1  UNL1        0.0000
     34 C           8.2213    1.8870    3.7279 C.3     1  UNL1        0.0000
     35 C           8.2865    2.6177    5.9226 C.2     1  UNL1        0.0000
     36 C           8.7377    2.9317    4.6167 C.3     1  UNL1        0.0000
     37 C           9.5735    3.9375    4.0963 C.2     1  UNL1        0.0000
     38 C           9.8651    3.9476    2.7534 C.2     1  UNL1        0.0000
     39 C           9.3544    2.9659    1.8875 C.2     1  UNL1        0.0000
     40 C           8.5445    1.9476    2.3466 C.2     1  UNL1        0.0000
     41 H           8.2346    1.1544    1.6762 H       1  UNL1        0.0000
     42 H           9.6294    2.9988    0.8424 H       1  UNL1        0.0000
     43 H          10.5155    4.7091    2.3493 H       1  UNL1        0.0000
     44 H          10.0021    4.6781    4.7583 H       1  UNL1        0.0000
     45 H           8.5483    3.1507    6.8228 H       1  UNL1        0.0000
@<TRIPOS>BOND
     1    18     3    1
     2    16     3    1
     3     3    17    1
     4     3     5    1
     5    19     6    1
     6    42    39    1
     7     6     5    2
     8     6     7    1
     9     5     4    1
    10    41    40    1
    11    13     2    1
    12    39    40    2
    13    39    38    1
    14    14     2    1
    15    40    34    1
    16    43    38    1
    17     2    15    1
    18     2     1    1
    19    20     8    1
    20    38    37    2
    21     7     8    1
    22     7    12    1
    23     4    12    1
    24     4     1    1
    25     8     9    2
    26    12    11    1
    27     1    28    1
    28     1    24    1
    29    34    28    1
    30    34    36    1
    31    37    36    1
    32    37    44    1
    33    27    24    1
    34    28    29    1
    35    36    35    1
    36     9    21    1
    37     9    10    1
    38    24    26    1
    39    24    25    1
    40    11    10    2
    41    11    23    1
    42    10    22    1
    43    29    35    2
    44    29    30    1
    45    35    45    1
    46    32    30    1
    47    30    31    1
    48    30    33    1
