@<TRIPOS>MOLECULE
2,3,4,5,6,7,39,40,41,46,49
 76 77 0 0 0
SMALL
GASTEIGER

@<TRIPOS>ATOM
      1 SI          1.1904    3.0495    2.1774 Si      1  UNL1        0.0000
      2 C          -0.2913    0.4987    1.9427 C.3     1  UNL1        0.0000
      3 C          -1.6160    0.1002    1.6487 C.2     1  UNL1        0.0000
      4 C          -2.2923    1.2225    1.1091 C.2     1  UNL1        0.0000
      5 C          -1.3629    2.2915    0.9932 C.3     1  UNL1        0.0000
      6 C          -0.1047    1.8396    1.5036 C.3     1  UNL1        0.0000
      7 C          -0.0591    3.6900    3.4486 C.3     1  UNL1        0.0000
      8 C          -0.7595    4.9889    3.0332 C.3     1  UNL1        0.0000
      9 C           0.0396    6.1995    3.5247 C.3     1  UNL1        0.0000
     10 C           0.8392   -0.4110    2.3271 C.3     1  UNL1        0.0000
     11 C          -2.1166   -1.3110    1.5451 C.3     1  UNL1        0.0000
     12 C          -3.6437    1.2088    0.4563 C.3     1  UNL1        0.0000
     13 C          -1.5530    3.4328    0.0335 C.3     1  UNL1        0.0000
     14 C           2.7392    2.2654    2.9861 C.3     1  UNL1        0.0000
     15 C           1.9076    4.2315    0.8425 C.3     1  UNL1        0.0000
     16 H          -0.3539    7.1285    3.1188 H       1  UNL1        0.0000
     17 H           1.0782    6.1057    3.2142 H       1  UNL1        0.0000
     18 H           0.0099    6.2597    4.6117 H       1  UNL1        0.0000
     19 H           0.5005   -1.4397    2.4227 H       1  UNL1        0.0000
     20 H           1.3090   -0.1080    3.2619 H       1  UNL1        0.0000
     21 H           1.6066   -0.3823    1.5516 H       1  UNL1        0.0000
     22 H          -3.1975   -1.3693    1.6470 H       1  UNL1        0.0000
     23 H          -1.6645   -1.9686    2.2828 H       1  UNL1        0.0000
     24 H          -1.8585   -1.7016    0.5563 H       1  UNL1        0.0000
     25 H          -3.5361    1.0001   -0.6121 H       1  UNL1        0.0000
     26 H          -4.1409    2.1734    0.5582 H       1  UNL1        0.0000
     27 H          -4.2890    0.4389    0.8771 H       1  UNL1        0.0000
     28 H          -1.7771    3.0252   -0.9562 H       1  UNL1        0.0000
     29 H          -0.6435    4.0202   -0.0483 H       1  UNL1        0.0000
     30 H          -2.3773    4.0933    0.3035 H       1  UNL1        0.0000
     31 H           3.4395    3.0448    3.2677 H       1  UNL1        0.0000
     32 H           3.2518    1.6010    2.3000 H       1  UNL1        0.0000
     33 H           2.4979    1.7059    3.8822 H       1  UNL1        0.0000
     34 H           1.2655    5.0870    0.6644 H       1  UNL1        0.0000
     35 H           2.0526    3.7225   -0.1057 H       1  UNL1        0.0000
     36 H           2.8724    4.6142    1.1588 H       1  UNL1        0.0000
     37 H           0.3565    3.8220    4.4537 H       1  UNL1        0.0000
     38 H          -0.8133    5.0464    1.9421 H       1  UNL1        0.0000
     39 C          -2.6735    0.4987    4.6548 C.3     1  UNL1        0.0000
     40 C          -1.3487    0.1002    4.9488 C.2     1  UNL1        0.0000
     41 C          -0.6725    1.2224    5.4884 C.2     1  UNL1        0.0000
     42 C          -0.8481   -1.3110    5.0523 C.3     1  UNL1        0.0000
     43 H           0.2328   -1.3692    4.9505 H       1  UNL1        0.0000
     44 H          -1.3002   -1.9685    4.3146 H       1  UNL1        0.0000
     45 H          -1.1062   -1.7016    6.0411 H       1  UNL1        0.0000
     46 C          -1.6019    2.2914    5.6044 C.3     1  UNL1        0.0000
     47 C          -2.8601    1.8395    5.0940 C.3     1  UNL1        0.0000
     48 SI         -4.1550    3.0495    4.4200 Si      1  UNL1        0.0000
     49 C          -2.9056    3.6902    3.1487 C.3     1  UNL1        0.0000
     50 C          -2.2052    4.9889    3.5643 C.3     1  UNL1        0.0000
     51 C          -3.0043    6.1995    3.0728 C.3     1  UNL1        0.0000
     52 H          -2.6108    7.1285    3.4787 H       1  UNL1        0.0000
     53 H          -4.0430    6.1058    3.3833 H       1  UNL1        0.0000
     54 H          -2.9747    6.2598    1.9858 H       1  UNL1        0.0000
     55 H          -2.1514    5.0464    4.6554 H       1  UNL1        0.0000
     56 H          -3.3212    3.8221    2.1435 H       1  UNL1        0.0000
     57 C          -5.7038    2.2655    3.6115 C.3     1  UNL1        0.0000
     58 H          -6.4042    3.0448    3.3298 H       1  UNL1        0.0000
     59 H          -6.2165    1.6010    4.2975 H       1  UNL1        0.0000
     60 H          -5.4625    1.7060    2.7154 H       1  UNL1        0.0000
     61 C          -4.8724    4.2314    5.7549 C.3     1  UNL1        0.0000
     62 H          -4.2302    5.0870    5.9330 H       1  UNL1        0.0000
     63 H          -5.0173    3.7225    6.7031 H       1  UNL1        0.0000
     64 H          -5.8371    4.6142    5.4386 H       1  UNL1        0.0000
     65 C          -3.8039   -0.4110    4.2703 C.3     1  UNL1        0.0000
     66 H          -3.4653   -1.4397    4.1747 H       1  UNL1        0.0000
     67 H          -4.2737   -0.1079    3.3355 H       1  UNL1        0.0000
     68 H          -4.5713   -0.3823    5.0458 H       1  UNL1        0.0000
     69 C          -1.4118    3.4328    6.5640 C.3     1  UNL1        0.0000
     70 H          -1.1876    3.0252    7.5537 H       1  UNL1        0.0000
     71 H          -2.3213    4.0202    6.6458 H       1  UNL1        0.0000
     72 H          -0.5874    4.0933    6.2940 H       1  UNL1        0.0000
     73 C           0.6790    1.2088    6.1411 C.3     1  UNL1        0.0000
     74 H           0.5714    1.0001    7.2095 H       1  UNL1        0.0000
     75 H           1.1761    2.1735    6.0393 H       1  UNL1        0.0000
     76 H           1.3242    0.4389    5.7203 H       1  UNL1        0.0000
@<TRIPOS>BOND
     1    28    13    1
     2    25    12    1
     3    35    15    1
     4    29    13    1
     5    13    30    1
     6    13     5    1
     7    12    26    1
     8    12    27    1
     9    12     4    1
    10    24    11    1
    11    34    15    1
    12    15    36    1
    13    15     1    1
    14     5     4    1
    15     5     6    1
    16     4     3    2
    17     6     2    1
    18     6     1    1
    19    11    22    1
    20    11     3    1
    21    11    23    1
    22    21    10    1
    23     3     2    1
    24    38     8    1
    25     2    10    1
    26    54    51    1
    27    56    49    1
    28     1    14    1
    29     1     7    1
    30    32    14    1
    31    10    19    1
    32    10    20    1
    33    60    57    1
    34    14    31    1
    35    14    33    1
    36     8     7    1
    37     8     9    1
    38     8    50    1
    39    51    53    1
    40    51    52    1
    41    51    50    1
    42    16     9    1
    43    49    50    1
    44    49    48    1
    45    17     9    1
    46    58    57    1
    47    67    65    1
    48     7    37    1
    49     9    18    1
    50    50    55    1
    51    57    59    1
    52    57    48    1
    53    66    65    1
    54    65    39    1
    55    65    68    1
    56    44    42    1
    57    48    47    1
    58    48    61    1
    59    39    40    1
    60    39    47    1
    61    40    42    1
    62    40    41    2
    63    43    42    1
    64    42    45    1
    65    47    46    1
    66    64    61    1
    67    41    46    1
    68    41    73    1
    69    46    69    1
    70    76    73    1
    71    61    62    1
    72    61    63    1
    73    75    73    1
    74    73    74    1
    75    72    69    1
    76    69    71    1
    77    69    70    1
