@<TRIPOS>MOLECULE
3,4,5,6,7,8,16,18,19,20,21,22
 70 71 0 0 0
SMALL
GASTEIGER

@<TRIPOS>ATOM
      1 SI          7.7430    5.6481    5.0971 Si      1  UNL1        0.0000
      2 SI          7.1376    0.3160    3.9372 Si      1  UNL1        0.0000
      3 C           5.0509    1.8617    2.6117 C.3     1  UNL1        0.0000
      4 C           4.2114    2.9660    2.9261 C.3     1  UNL1        0.0000
      5 C           4.2846    3.1726    4.3167 C.3     1  UNL1        0.0000
      6 C           5.0792    2.1388    4.8824 C.3     1  UNL1        0.0000
      7 C           5.5467    1.3131    3.8231 C.3     1  UNL1        0.0000
      8 C           8.1434    1.9072    3.8031 C.3     1  UNL1        0.0000
      9 H           8.7855    1.8932    2.9234 H       1  UNL1        0.0000
     10 C           8.8944    2.3909    5.0224 C.3     1  UNL1        0.0000
     11 H           9.4975    1.5713    5.4385 H       1  UNL1        0.0000
     12 H           9.5779    3.1962    4.7576 H       1  UNL1        0.0000
     13 C           7.9347    2.9010    6.0889 C.3     1  UNL1        0.0000
     14 H           8.5112    3.3137    6.9291 H       1  UNL1        0.0000
     15 H           7.3611    2.0577    6.4706 H       1  UNL1        0.0000
     16 C           7.0146    3.9613    5.5284 C.3     1  UNL1        0.0000
     17 H           6.1156    4.0645    6.1342 H       1  UNL1        0.0000
     18 C           6.2488    5.3350    2.6132 C.3     1  UNL1        0.0000
     19 C           6.3016    4.5020    1.4616 C.3     1  UNL1        0.0000
     20 C           7.5453    3.8424    1.4714 C.3     1  UNL1        0.0000
     21 C           8.3081    4.3397    2.5626 C.3     1  UNL1        0.0000
     22 C           7.5072    5.2797    3.2677 C.3     1  UNL1        0.0000
     23 C           5.1588    1.1797    1.2875 C.3     1  UNL1        0.0000
     24 H           4.4462    1.5848    0.5709 H       1  UNL1        0.0000
     25 H           4.9453    0.1176    1.4110 H       1  UNL1        0.0000
     26 H           6.1618    1.2694    0.8738 H       1  UNL1        0.0000
     27 C           3.1164    3.5375    2.0813 C.3     1  UNL1        0.0000
     28 H           3.2140    3.2614    1.0359 H       1  UNL1        0.0000
     29 H           3.0538    4.6206    2.1566 H       1  UNL1        0.0000
     30 H           2.1682    3.1294    2.4446 H       1  UNL1        0.0000
     31 C           3.4129    4.0864    5.1186 C.3     1  UNL1        0.0000
     32 H           2.8701    4.7846    4.4851 H       1  UNL1        0.0000
     33 H           3.9888    4.6519    5.8532 H       1  UNL1        0.0000
     34 H           2.6794    3.4894    5.6680 H       1  UNL1        0.0000
     35 C           4.9188    1.6955    6.3022 C.3     1  UNL1        0.0000
     36 H           5.1175    2.4812    7.0298 H       1  UNL1        0.0000
     37 H           5.5418    0.8344    6.5207 H       1  UNL1        0.0000
     38 H           3.8755    1.3918    6.4349 H       1  UNL1        0.0000
     39 C           5.1934    6.3425    2.9311 C.3     1  UNL1        0.0000
     40 H           4.4585    6.4174    2.1315 H       1  UNL1        0.0000
     41 H           5.6564    7.3220    3.0556 H       1  UNL1        0.0000
     42 H           4.6790    6.0996    3.8592 H       1  UNL1        0.0000
     43 C           5.4484    4.5994    0.2361 C.3     1  UNL1        0.0000
     44 H           6.0224    5.1326   -0.5280 H       1  UNL1        0.0000
     45 H           4.5356    5.1601    0.4123 H       1  UNL1        0.0000
     46 H           5.1917    3.6244   -0.1717 H       1  UNL1        0.0000
     47 C           8.1209    3.0294    0.3553 C.3     1  UNL1        0.0000
     48 H           7.3722    2.7906   -0.3969 H       1  UNL1        0.0000
     49 H           8.5634    2.1004    0.7192 H       1  UNL1        0.0000
     50 H           8.9164    3.6014   -0.1305 H       1  UNL1        0.0000
     51 C           9.8040    4.3223    2.5647 C.3     1  UNL1        0.0000
     52 H          10.1395    4.8673    1.6765 H       1  UNL1        0.0000
     53 H          10.2290    3.3213    2.5044 H       1  UNL1        0.0000
     54 H          10.2042    4.8333    3.4342 H       1  UNL1        0.0000
     55 C           7.3589   -0.7826    5.4926 C.3     1  UNL1        0.0000
     56 H           8.1861   -1.4654    5.3308 H       1  UNL1        0.0000
     57 H           6.4750   -1.3827    5.6846 H       1  UNL1        0.0000
     58 H           7.5820   -0.2132    6.3873 H       1  UNL1        0.0000
     59 C           7.4638   -0.9000    2.4928 C.3     1  UNL1        0.0000
     60 H           7.6038   -0.3982    1.5427 H       1  UNL1        0.0000
     61 H           6.6493   -1.6074    2.3806 H       1  UNL1        0.0000
     62 H           8.3634   -1.4712    2.6967 H       1  UNL1        0.0000
     63 C           9.5257    6.0525    5.6752 C.3     1  UNL1        0.0000
     64 H           9.4894    6.4603    6.6797 H       1  UNL1        0.0000
     65 H           9.9904    6.7985    5.0383 H       1  UNL1        0.0000
     66 H          10.1715    5.1826    5.7042 H       1  UNL1        0.0000
     67 C           6.7169    7.1100    5.7908 C.3     1  UNL1        0.0000
     68 H           5.6493    6.9269    5.7628 H       1  UNL1        0.0000
     69 H           6.9137    8.0252    5.2430 H       1  UNL1        0.0000
     70 H           6.9913    7.2861    6.8256 H       1  UNL1        0.0000
@<TRIPOS>BOND
     1    44    43    1
     2    48    47    1
     3    46    43    1
     4    50    47    1
     5    43    45    1
     6    43    19    1
     7    47    49    1
     8    47    20    1
     9    24    23    1
    10    26    23    1
    11    28    27    1
    12    23    25    1
    13    23     3    1
    14    19    20    1
    15    19    18    1
    16    20    21    1
    17    60    59    1
    18    52    51    1
    19    27    29    1
    20    27    30    1
    21    27     4    1
    22    40    39    1
    23    61    59    1
    24    59    62    1
    25    59     2    1
    26    53    51    1
    27    21    51    1
    28    21    22    1
    29    51    54    1
    30     3     4    1
    31     3     7    1
    32    18    39    1
    33    18    22    1
    34     9     8    1
    35     4     5    1
    36    39    41    1
    37    39    42    1
    38    22     1    1
    39     8     2    1
    40     8    10    1
    41     7     2    1
    42     7     6    1
    43     2    55    1
    44     5     6    1
    45     5    31    1
    46    32    31    1
    47    12    10    1
    48     6    35    1
    49    10    11    1
    50    10    13    1
    51    65    63    1
    52     1    16    1
    53     1    63    1
    54     1    67    1
    55    31    34    1
    56    31    33    1
    57    69    67    1
    58    56    55    1
    59    55    57    1
    60    55    58    1
    61    16    13    1
    62    16    17    1
    63    63    66    1
    64    63    64    1
    65    68    67    1
    66    67    70    1
    67    13    15    1
    68    13    14    1
    69    35    38    1
    70    35    37    1
    71    35    36    1
