@<TRIPOS>MOLECULE
1,3,5,9
 32 32 0 0 0
SMALL
GASTEIGER

@<TRIPOS>ATOM
      1 B          -1.8915    0.3346   -6.2096 B       1  UNL1        0.0000
      2 N          -3.1308   -0.0339   -6.8331 N.3     1  UNL1        0.0000
      3 C          -0.5376    0.3209   -6.9411 C.3     1  UNL1        0.0000
      4 H          -0.4389    0.0846   -7.9985 H       1  UNL1        0.0000
      5 C           0.5950    0.8878   -6.3573 C.3     1  UNL1        0.0000
      6 C           0.5638    1.3965   -5.0457 C.2     1  UNL1        0.0000
      7 H           1.4391    1.9099   -4.6631 H       1  UNL1        0.0000
      8 C          -0.6154    1.3978   -4.2762 C.2     1  UNL1        0.0000
      9 C          -1.7983    0.8454   -4.7651 C.2     1  UNL1        0.0000
     10 H          -2.6751    1.0177   -4.1405 H       1  UNL1        0.0000
     11 C           1.8529    1.1018   -7.1667 C.3     1  UNL1        0.0000
     12 H           1.9007    2.1404   -7.4984 H       1  UNL1        0.0000
     13 H           1.8679    0.4653   -8.0490 H       1  UNL1        0.0000
     14 H           2.7458    0.9021   -6.5755 H       1  UNL1        0.0000
     15 C          -0.6231    2.1911   -2.9889 C.3     1  UNL1        0.0000
     16 H          -1.2907    1.7557   -2.2459 H       1  UNL1        0.0000
     17 H          -0.9788    3.2018   -3.2002 H       1  UNL1        0.0000
     18 H           0.3750    2.2745   -2.5636 H       1  UNL1        0.0000
     19 C          -4.4132    0.1574   -6.1982 C.3     1  UNL1        0.0000
     20 H          -5.1795    0.3336   -6.9611 H       1  UNL1        0.0000
     21 H          -4.3755    1.0468   -5.5630 H       1  UNL1        0.0000
     22 C          -4.8200   -1.0499   -5.3451 C.3     1  UNL1        0.0000
     23 H          -4.0593   -1.2214   -4.5880 H       1  UNL1        0.0000
     24 H          -4.9008   -1.9420   -5.9632 H       1  UNL1        0.0000
     25 H          -5.7782   -0.8747   -4.8601 H       1  UNL1        0.0000
     26 C          -3.1967   -0.5872   -8.1674 C.3     1  UNL1        0.0000
     27 H          -4.0603   -1.2593   -8.2419 H       1  UNL1        0.0000
     28 H          -2.2986   -1.1816   -8.3486 H       1  UNL1        0.0000
     29 C          -3.3108    0.4960   -9.2453 C.3     1  UNL1        0.0000
     30 H          -2.4597    1.1682   -9.1801 H       1  UNL1        0.0000
     31 H          -4.2177    1.0811   -9.1081 H       1  UNL1        0.0000
     32 H          -3.3338    0.0462  -10.2352 H       1  UNL1        0.0000
@<TRIPOS>BOND
     1    32    29    1
     2    29    30    1
     3    29    31    1
     4    29    26    1
     5    28    26    1
     6    27    26    1
     7    26     2    1
     8    13    11    1
     9     4     3    1
    10    12    11    1
    11    11    14    1
    12    11     5    1
    13    20    19    1
    14     3     5    1
    15     3     1    1
    16     2     1    1
    17     2    19    1
    18     5     6    1
    19     1     9    2
    20    19    21    1
    21    19    22    1
    22    24    22    1
    23    22    25    1
    24    22    23    1
    25     6     7    1
    26     6     8    2
    27     9     8    1
    28     9    10    1
    29     8    15    1
    30    17    15    1
    31    15    18    1
    32    15    16    1
