@<TRIPOS>MOLECULE
4,8,9,10
 34 34 0 0 0
SMALL
GASTEIGER

@<TRIPOS>ATOM
      1 SI          3.1293    6.8540    3.1029 Si      1  UNL1        0.0000
      2 SI          5.5461    4.8515    2.7320 Si      1  UNL1        0.0000
      3 N           3.8349    5.2100    3.0812 N.3     1  UNL1        0.0000
      4 B           3.0854    4.1414    3.4976 B       1  UNL1        0.0000
      5 O           2.8483    4.6680    6.0389 O.3     1  UNL1        0.0000
      6 O          -0.0562    4.2137    4.9486 O.3     1  UNL1        0.0000
      7 O           0.9671    4.2808    2.0050 O.3     1  UNL1        0.0000
      8 C           2.6426    3.9075    5.1583 C.3     1  UNL1        0.0000
      9 C           0.8316    3.5420    4.6024 C.3     1  UNL1        0.0000
     10 C           1.5593    3.6870    2.8397 C.3     1  UNL1        0.0000
     11 C           1.4306    6.8903    3.9484 C.3     1  UNL1        0.0000
     12 H           0.6898    6.3200    3.3963 H       1  UNL1        0.0000
     13 H           1.0661    7.9111    4.0177 H       1  UNL1        0.0000
     14 H           1.4722    6.4922    4.9583 H       1  UNL1        0.0000
     15 C           2.9448    7.3851    1.2821 C.3     1  UNL1        0.0000
     16 H           3.8967    7.5138    0.7800 H       1  UNL1        0.0000
     17 H           2.4106    8.3276    1.2184 H       1  UNL1        0.0000
     18 H           2.3722    6.6457    0.7290 H       1  UNL1        0.0000
     19 C           4.3120    7.9348    4.1375 C.3     1  UNL1        0.0000
     20 H           5.3239    7.9555    3.7496 H       1  UNL1        0.0000
     21 H           4.3575    7.5734    5.1609 H       1  UNL1        0.0000
     22 H           3.9517    8.9578    4.1683 H       1  UNL1        0.0000
     23 C           6.2924    6.1223    1.5281 C.3     1  UNL1        0.0000
     24 H           6.1750    7.1470    1.8591 H       1  UNL1        0.0000
     25 H           5.8514    6.0384    0.5403 H       1  UNL1        0.0000
     26 H           7.3558    5.9324    1.4244 H       1  UNL1        0.0000
     27 C           6.4474    4.7993    4.4118 C.3     1  UNL1        0.0000
     28 H           6.5794    5.7918    4.8313 H       1  UNL1        0.0000
     29 H           7.4309    4.3478    4.3264 H       1  UNL1        0.0000
     30 H           5.8711    4.2181    5.1287 H       1  UNL1        0.0000
     31 C           5.5660    3.1487    1.8788 C.3     1  UNL1        0.0000
     32 H           4.7695    3.0760    1.1418 H       1  UNL1        0.0000
     33 H           5.4202    2.3519    2.6020 H       1  UNL1        0.0000
     34 H           6.5074    2.9631    1.3708 H       1  UNL1        0.0000
@<TRIPOS>BOND
     1    25    23    1
     2    18    15    1
     3    16    15    1
     4    32    31    1
     5    17    15    1
     6    15     1    1
     7    34    31    1
     8    26    23    1
     9    23    24    1
    10    23     2    1
    11    31    33    1
    12    31     2    1
    13     7    10    1
    14     2     3    1
    15     2    27    1
    16    10     4    1
    17    10     9    1
    18     3     1    1
    19     3     4    1
    20     1    11    1
    21     1    19    1
    22    12    11    1
    23     4     8    1
    24    20    19    1
    25    11    13    1
    26    11    14    1
    27    19    22    1
    28    19    21    1
    29    29    27    1
    30    27    28    1
    31    27    30    1
    32     9     6    1
    33     9     8    1
    34     8     5    1
