@<TRIPOS>MOLECULE
1,8,24,38
 88 89 0 0 0
SMALL
GASTEIGER

@<TRIPOS>ATOM
      1 N           0.5387   -1.4534    4.3885 N.3     1  UNL1       -0.2916
      2 C           0.7227   -1.3118    5.8362 C.3     1  UNL1        0.0230
      3 H           1.7947   -1.2428    6.0891 H       1  UNL1        0.0449
      4 H           0.3141   -2.2128    6.3045 H       1  UNL1        0.0449
      5 C           0.0100   -0.0917    6.4163 C.3     1  UNL1        0.0600
      6 H          -0.0003   -0.1734    7.5150 H       1  UNL1        0.0572
      7 H           0.5324    0.8333    6.1387 H       1  UNL1        0.0572
      8 O          -1.3280   -0.0369    5.9332 O.3     1  UNL1       -0.3817
      9 C          -1.9639    1.1565    6.3632 C.3     1  UNL1        0.0365
     10 H          -1.9590    1.2153    7.4585 H       1  UNL1        0.0523
     11 H          -2.9902    1.1185    6.0050 H       1  UNL1        0.0523
     12 H          -1.4535    2.0350    5.9498 H       1  UNL1        0.0523
     13 C           1.3186   -0.4442    3.6433 C.3     1  UNL1        0.0281
     14 H           1.3009   -0.7474    2.5883 H       1  UNL1        0.0477
     15 H           2.3668   -0.4644    3.9885 H       1  UNL1        0.0477
     16 C           0.7971    0.9660    3.7119 C.ar    1  UNL1        0.0138
     17 C          -0.4803    1.2388    3.1674 C.ar    1  UNL1        0.1870
     18 C          -0.8842    2.5992    3.0976 C.ar    1  UNL1        0.0052
     19 C          -0.0625    3.5689    3.6510 C.ar    1  UNL1       -0.0507
     20 H          -0.3916    4.5911    3.6163 H       1  UNL1        0.0625
     21 C           1.1670    3.2953    4.2400 C.ar    1  UNL1       -0.0412
     22 C           1.5901    1.9738    4.2298 C.ar    1  UNL1       -0.0500
     23 H           2.5603    1.7079    4.6286 H       1  UNL1        0.0625
     24 O          -1.2088    0.2370    2.7135 O.3     1  UNL1       -0.2873
     25 C          -2.1949    2.9759    2.4153 C.3     1  UNL1       -0.0090
     26 C           2.0513    4.3652    4.8635 C.3     1  UNL1       -0.0127
     27 C           1.0526   -2.7771    3.9789 C.3     1  UNL1        0.0281
     28 H           2.1485   -2.7900    4.1143 H       1  UNL1        0.0477
     29 H           0.8519   -2.8793    2.9052 H       1  UNL1        0.0477
     30 C           0.4801   -3.9673    4.7091 C.ar    1  UNL1        0.0138
     31 C          -0.9086   -4.0922    4.9343 C.ar    1  UNL1        0.1870
     32 C          -1.3620   -5.2777    5.5805 C.ar    1  UNL1        0.0052
     33 C          -0.4403   -6.2412    5.9379 C.ar    1  UNL1       -0.0507
     34 H          -0.7924   -7.1363    6.4207 H       1  UNL1        0.0625
     35 C           0.9302   -6.1215    5.7157 C.ar    1  UNL1       -0.0412
     36 C           1.3648   -4.9622    5.1018 C.ar    1  UNL1       -0.0500
     37 H           2.4146   -4.8058    4.9044 H       1  UNL1        0.0625
     38 O          -1.7405   -3.1403    4.5725 O.3     1  UNL1       -0.2873
     39 C          -2.8443   -5.4468    5.8949 C.3     1  UNL1       -0.0090
     40 C           1.8624   -7.2406    6.1543 C.3     1  UNL1       -0.0127
     41 C          -3.3674    2.4031    3.2212 C.3     1  UNL1       -0.0559
     42 H          -4.3053    2.5974    2.7051 H       1  UNL1        0.0238
     43 H          -3.4091    2.8762    4.2017 H       1  UNL1        0.0238
     44 H          -3.2670    1.3243    3.3466 H       1  UNL1        0.0238
     45 C          -2.4006    4.4910    2.2945 C.3     1  UNL1       -0.0559
     46 H          -1.5887    4.9558    1.7395 H       1  UNL1        0.0238
     47 H          -2.4842    4.9639    3.2706 H       1  UNL1        0.0238
     48 H          -3.3272    4.6797    1.7559 H       1  UNL1        0.0238
     49 C          -2.2066    2.3937    0.9960 C.3     1  UNL1       -0.0559
     50 H          -1.3691    2.7857    0.4214 H       1  UNL1        0.0238
     51 H          -3.1330    2.6551    0.4888 H       1  UNL1        0.0238
     52 H          -2.1292    1.3123    1.0410 H       1  UNL1        0.0238
     53 C           2.3008    4.0126    6.3378 C.3     1  UNL1       -0.0560
     54 H           1.3568    3.9629    6.8775 H       1  UNL1        0.0238
     55 H           2.9254    4.7706    6.8061 H       1  UNL1        0.0238
     56 H           2.8016    3.0531    6.4360 H       1  UNL1        0.0238
     57 C           3.3884    4.4168    4.1114 C.3     1  UNL1       -0.0560
     58 H           3.9131    3.4674    4.1732 H       1  UNL1        0.0238
     59 H           4.0294    5.1891    4.5321 H       1  UNL1        0.0238
     60 H           3.2173    4.6425    3.0612 H       1  UNL1        0.0238
     61 C           1.4227    5.7602    4.8116 C.3     1  UNL1       -0.0560
     62 H           1.2632    6.0787    3.7844 H       1  UNL1        0.0238
     63 H           2.0910    6.4771    5.2851 H       1  UNL1        0.0238
     64 H           0.4742    5.7825    5.3433 H       1  UNL1        0.0238
     65 C          -3.6646   -5.3348    4.6029 C.3     1  UNL1       -0.0559
     66 H          -4.7177   -5.5176    4.8097 H       1  UNL1        0.0238
     67 H          -3.3246   -6.0734    3.8771 H       1  UNL1        0.0238
     68 H          -3.5622   -4.3379    4.1801 H       1  UNL1        0.0238
     69 C          -3.1755   -6.7977    6.5401 C.3     1  UNL1       -0.0559
     70 H          -2.6679   -6.9172    7.4946 H       1  UNL1        0.0238
     71 H          -2.9089   -7.6246    5.8851 H       1  UNL1        0.0238
     72 H          -4.2468   -6.8488    6.7260 H       1  UNL1        0.0238
     73 C          -3.2563   -4.3399    6.8743 C.3     1  UNL1       -0.0559
     74 H          -2.6917   -4.4321    7.8010 H       1  UNL1        0.0238
     75 H          -4.3172   -4.4100    7.1045 H       1  UNL1        0.0238
     76 H          -3.0624   -3.3634    6.4382 H       1  UNL1        0.0238
     77 C           1.4714   -8.5371    5.4311 C.3     1  UNL1       -0.0560
     78 H           0.4537   -8.8309    5.6715 H       1  UNL1        0.0238
     79 H           2.1380   -9.3471    5.7212 H       1  UNL1        0.0238
     80 H           1.5404   -8.4007    4.3538 H       1  UNL1        0.0238
     81 C           3.3299   -6.9432    5.8337 C.3     1  UNL1       -0.0560
     82 H           3.4780   -6.8188    4.7635 H       1  UNL1        0.0238
     83 H           3.9505   -7.7737    6.1653 H       1  UNL1        0.0238
     84 H           3.6673   -6.0457    6.3470 H       1  UNL1        0.0238
     85 C           1.7379   -7.4382    7.6717 C.3     1  UNL1       -0.0560
     86 H           1.9968   -6.5182    8.1917 H       1  UNL1        0.0238
     87 H           2.4096   -8.2264    8.0065 H       1  UNL1        0.0238
     88 H           0.7248   -7.7126    7.9513 H       1  UNL1        0.0238
@<TRIPOS>BOND
     1    50    49    1
     2    51    49    1
     3    49    52    1
     4    49    25    1
     5    46    45    1
     6    48    45    1
     7    45    25    1
     8    45    47    1
     9    25    18    1
    10    25    41    1
    11    14    13    1
    12    42    41    1
    13    24    17    1
    14    29    27    1
    15    60    57    1
    16    18    17   ar
    17    18    19   ar
    18    17    16   ar
    19    41    44    1
    20    41    43    1
    21    20    19    1
    22    13    16    1
    23    13    15    1
    24    13     1    1
    25    19    21   ar
    26    16    22   ar
    27    62    61    1
    28    67    65    1
    29    27    28    1
    30    27     1    1
    31    27    30    1
    32    57    58    1
    33    57    59    1
    34    57    26    1
    35    68    65    1
    36    22    21   ar
    37    22    23    1
    38    21    26    1
    39    80    77    1
    40     1     2    1
    41    38    31    1
    42    65    66    1
    43    65    39    1
    44    30    31   ar
    45    30    36   ar
    46    82    81    1
    47    61    26    1
    48    61    63    1
    49    61    64    1
    50    26    53    1
    51    37    36    1
    52    31    32   ar
    53    36    35   ar
    54    77    78    1
    55    77    79    1
    56    77    40    1
    57    32    39    1
    58    32    33   ar
    59    35    33   ar
    60    35    40    1
    61    81    40    1
    62    81    83    1
    63    81    84    1
    64     2     3    1
    65     2     4    1
    66     2     5    1
    67    71    69    1
    68    39    69    1
    69    39    73    1
    70     8     9    1
    71     8     5    1
    72    33    34    1
    73    12     9    1
    74    11     9    1
    75     7     5    1
    76    40    85    1
    77    53    56    1
    78    53    55    1
    79    53    54    1
    80     9    10    1
    81     5     6    1
    82    76    73    1
    83    69    72    1
    84    69    70    1
    85    73    75    1
    86    73    74    1
    87    85    88    1
    88    85    87    1
    89    85    86    1
