@<TRIPOS>MOLECULE
1,2,3,4
 88 89 0 0 0
SMALL
GASTEIGER

@<TRIPOS>ATOM
      1 O           9.5578    3.5528   23.4152 O.3     1  UNL1       -0.2873
      2 O           6.2828    2.2429   23.6309 O.3     1  UNL1       -0.3817
      3 O           7.4107    2.0028   20.4696 O.3     1  UNL1       -0.2873
      4 N           8.6494    0.8084   22.9577 N.3     1  UNL1       -0.2916
      5 C          10.0525    3.0271   24.5143 C.ar    1  UNL1        0.1870
      6 C          10.2947    3.7859   25.6911 C.ar    1  UNL1        0.0052
      7 C          10.8933    3.1698   26.7770 C.ar    1  UNL1       -0.0507
      8 H          11.0818    3.7607   27.6542 H       1  UNL1        0.0625
      9 C          11.2571    1.8282   26.7972 C.ar    1  UNL1       -0.0412
     10 C          10.9653    1.0815   25.6661 C.ar    1  UNL1       -0.0500
     11 H          11.1956    0.0248   25.6360 H       1  UNL1        0.0625
     12 C          10.3810    1.6521   24.5502 C.ar    1  UNL1        0.0138
     13 C          10.0755    0.7908   23.3540 C.3     1  UNL1        0.0281
     14 H          10.6534    1.1366   22.4898 H       1  UNL1        0.0477
     15 H          10.3798   -0.2468   23.5774 H       1  UNL1        0.0477
     16 C           7.8263    0.4519   24.1161 C.3     1  UNL1        0.0230
     17 H           7.8622   -0.6334   24.3072 H       1  UNL1        0.0449
     18 H           8.2454    0.9717   24.9837 H       1  UNL1        0.0449
     19 C           6.3618    0.8667   23.9837 C.3     1  UNL1        0.0600
     20 H           5.8664    0.7110   24.9553 H       1  UNL1        0.0572
     21 H           5.8441    0.2643   23.2261 H       1  UNL1        0.0572
     22 C           4.9356    2.6703   23.5461 C.3     1  UNL1        0.0365
     23 H           4.9501    3.7297   23.2923 H       1  UNL1        0.0523
     24 H           4.4283    2.5301   24.5085 H       1  UNL1        0.0523
     25 H           4.3975    2.1098   22.7725 H       1  UNL1        0.0523
     26 C           8.4888   -0.1674   21.8653 C.3     1  UNL1        0.0281
     27 H           9.2111    0.1042   21.0849 H       1  UNL1        0.0477
     28 H           8.7476   -1.1764   22.2338 H       1  UNL1        0.0477
     29 C           7.1194   -0.2084   21.2447 C.ar    1  UNL1        0.0138
     30 C           6.3552   -1.3556   21.3530 C.ar    1  UNL1       -0.0500
     31 H           6.7556   -2.1833   21.9232 H       1  UNL1        0.0625
     32 C           5.1078   -1.4566   20.7553 C.ar    1  UNL1       -0.0412
     33 C           4.6884   -0.3744   19.9905 C.ar    1  UNL1       -0.0507
     34 H           3.7413   -0.4456   19.4882 H       1  UNL1        0.0625
     35 C           5.4261    0.7874   19.8303 C.ar    1  UNL1        0.0052
     36 C           6.6650    0.9167   20.5159 C.ar    1  UNL1        0.1870
     37 C           9.8445    5.2411   25.7625 C.3     1  UNL1       -0.0090
     38 C           8.3137    5.2664   25.6370 C.3     1  UNL1       -0.0559
     39 H           7.9517    6.2928   25.6091 H       1  UNL1        0.0238
     40 H           7.8614    4.7612   26.4893 H       1  UNL1        0.0238
     41 H           7.9974    4.7573   24.7265 H       1  UNL1        0.0238
     42 C          10.4814    6.0443   24.6222 C.3     1  UNL1       -0.0559
     43 H          10.1525    7.0813   24.6605 H       1  UNL1        0.0238
     44 H          10.1959    5.6225   23.6638 H       1  UNL1        0.0238
     45 H          11.5664    6.0206   24.7089 H       1  UNL1        0.0238
     46 C          10.2174    5.9320   27.0795 C.3     1  UNL1       -0.0559
     47 H           9.8722    6.9640   27.0480 H       1  UNL1        0.0238
     48 H          11.2951    5.9436   27.2266 H       1  UNL1        0.0238
     49 H           9.7448    5.4496   27.9322 H       1  UNL1        0.0238
     50 C          11.9230    1.1618   27.9921 C.3     1  UNL1       -0.0127
     51 C          13.2708    0.5722   27.5525 C.3     1  UNL1       -0.0560
     52 H          13.1399   -0.1736   26.7733 H       1  UNL1        0.0238
     53 H          13.7707    0.1000   28.3962 H       1  UNL1        0.0238
     54 H          13.9141    1.3593   27.1649 H       1  UNL1        0.0238
     55 C          12.1865    2.1345   29.1446 C.3     1  UNL1       -0.0560
     56 H          11.2571    2.5508   29.5260 H       1  UNL1        0.0238
     57 H          12.8374    2.9462   28.8283 H       1  UNL1        0.0238
     58 H          12.6776    1.6069   29.9604 H       1  UNL1        0.0238
     59 C          11.0147    0.0395   28.5149 C.3     1  UNL1       -0.0560
     60 H          10.0506    0.4464   28.8132 H       1  UNL1        0.0238
     61 H          11.4686   -0.4433   29.3784 H       1  UNL1        0.0238
     62 H          10.8438   -0.7162   27.7530 H       1  UNL1        0.0238
     63 C           4.2817   -2.7207   20.9400 C.3     1  UNL1       -0.0127
     64 C           4.0171   -2.9314   22.4384 C.3     1  UNL1       -0.0560
     65 H           4.9459   -3.0372   22.9925 H       1  UNL1        0.0238
     66 H           3.4233   -3.8299   22.5946 H       1  UNL1        0.0238
     67 H           3.4715   -2.0825   22.8464 H       1  UNL1        0.0238
     68 C           2.9293   -2.6571   20.2253 C.3     1  UNL1       -0.0560
     69 H           3.0600   -2.5490   19.1513 H       1  UNL1        0.0238
     70 H           2.3289   -1.8295   20.5963 H       1  UNL1        0.0238
     71 H           2.3795   -3.5791   20.4055 H       1  UNL1        0.0238
     72 C           5.0598   -3.9197   20.3799 C.3     1  UNL1       -0.0560
     73 H           5.2711   -3.7671   19.3237 H       1  UNL1        0.0238
     74 H           4.4777   -4.8329   20.4887 H       1  UNL1        0.0238
     75 H           6.0047   -4.0541   20.8990 H       1  UNL1        0.0238
     76 C           4.9429    1.8956   18.8997 C.3     1  UNL1       -0.0090
     77 C           4.7232    3.1855   19.6989 C.3     1  UNL1       -0.0559
     78 H           4.4455    4.0001   19.0325 H       1  UNL1        0.0238
     79 H           5.6379    3.4601   20.2200 H       1  UNL1        0.0238
     80 H           3.9237    3.0480   20.4260 H       1  UNL1        0.0238
     81 C           3.6319    1.5623   18.1784 C.3     1  UNL1       -0.0559
     82 H           3.3739    2.3873   17.5166 H       1  UNL1        0.0238
     83 H           2.8112    1.4310   18.8806 H       1  UNL1        0.0238
     84 H           3.7309    0.6653   17.5714 H       1  UNL1        0.0238
     85 C           6.0190    2.1229   17.8297 C.3     1  UNL1       -0.0559
     86 H           5.7248    2.9266   17.1575 H       1  UNL1        0.0238
     87 H           6.1641    1.2156   17.2458 H       1  UNL1        0.0238
     88 H           6.9589    2.3889   18.3022 H       1  UNL1        0.0238
@<TRIPOS>BOND
     1    86    85    1
     2    87    85    1
     3    82    81    1
     4    84    81    1
     5    85    88    1
     6    85    76    1
     7    81    83    1
     8    81    76    1
     9    76    77    1
    10    76    35    1
    11    78    77    1
    12    69    68    1
    13    73    72    1
    14    34    33    1
    15    77    79    1
    16    77    80    1
    17    35    33   ar
    18    35    36   ar
    19    33    32   ar
    20    68    71    1
    21    68    70    1
    22    68    63    1
    23    72    74    1
    24    72    75    1
    25    72    63    1
    26     3    36    1
    27    36    29   ar
    28    32    63    1
    29    32    30   ar
    30    63    64    1
    31    27    26    1
    32    29    30   ar
    33    29    26    1
    34    30    31    1
    35    26    28    1
    36    26     4    1
    37    64    66    1
    38    64    67    1
    39    64    65    1
    40    14    13    1
    41    25    22    1
    42     4    13    1
    43     4    16    1
    44    21    19    1
    45    23    22    1
    46    13    15    1
    47    13    12    1
    48     1     5    1
    49    22     2    1
    50    22    24    1
    51     2    19    1
    52    44    42    1
    53    19    16    1
    54    19    20    1
    55    16    17    1
    56    16    18    1
    57     5    12   ar
    58     5     6   ar
    59    12    10   ar
    60    42    43    1
    61    42    45    1
    62    42    37    1
    63    41    38    1
    64    39    38    1
    65    11    10    1
    66    38    37    1
    67    38    40    1
    68    10     9   ar
    69     6    37    1
    70     6     7   ar
    71    37    46    1
    72    52    51    1
    73     7     9   ar
    74     7     8    1
    75     9    50    1
    76    47    46    1
    77    46    48    1
    78    46    49    1
    79    54    51    1
    80    51    50    1
    81    51    53    1
    82    62    59    1
    83    50    59    1
    84    50    55    1
    85    59    60    1
    86    59    61    1
    87    57    55    1
    88    55    56    1
    89    55    58    1
