@<TRIPOS>MOLECULE
5,12,13,65
 116 121 0 0 0
SMALL
GASTEIGER

@<TRIPOS>ATOM
      1 C           1.6597    0.4019   12.0692 C.3     1  UNL1        0.0365
      2 H           1.6616   -0.2238   11.1694 H       1  UNL1        0.0523
      3 H           1.3064    1.3986   11.8086 H       1  UNL1        0.0523
      4 H           1.0127   -0.0533   12.8277 H       1  UNL1        0.0523
      5 O           2.9780    0.5557   12.5653 O.3     1  UNL1       -0.3817
      6 C           3.5938   -0.6973   12.8292 C.3     1  UNL1        0.0600
      7 H           3.3933   -1.3931   12.0007 H       1  UNL1        0.0572
      8 H           3.1869   -1.1232   13.7573 H       1  UNL1        0.0572
      9 C           5.1030   -0.4671   12.9290 C.3     1  UNL1        0.0230
     10 H           5.5824   -1.3655   13.3538 H       1  UNL1        0.0449
     11 H           5.4855   -0.3086   11.9141 H       1  UNL1        0.0449
     12 N           5.4272    0.7229   13.7191 N.3     1  UNL1       -0.2916
     13 O           5.5961    3.5697   13.2844 O.3     1  UNL1       -0.2873
     14 C           6.5863    3.4902   14.1501 C.ar    1  UNL1        0.1873
     15 C           7.2754    2.2614   14.2817 C.ar    1  UNL1        0.0138
     16 C           8.2372    2.0862   15.2561 C.ar    1  UNL1       -0.0497
     17 H           8.7157    1.1211   15.3558 H       1  UNL1        0.0625
     18 C           8.5394    3.0998   16.1562 C.ar    1  UNL1       -0.0366
     19 C           7.9205    4.3275   15.9777 C.ar    1  UNL1       -0.0501
     20 H           8.1457    5.1354   16.6554 H       1  UNL1        0.0625
     21 C           6.9910    4.5655   14.9743 C.ar    1  UNL1        0.0098
     22 C           6.8312    1.1071   13.4256 C.3     1  UNL1        0.0281
     23 H           7.4941    0.2447   13.6072 H       1  UNL1        0.0477
     24 H           6.8848    1.3846   12.3634 H       1  UNL1        0.0477
     25 C           9.4629    2.7691   17.3181 C.3     1  UNL1        0.0151
     26 C          10.8951    2.6740   16.7769 C.3     1  UNL1       -0.0517
     27 H          11.6113    2.5312   17.5830 H       1  UNL1        0.0241
     28 H          11.1425    3.6012   16.2638 H       1  UNL1        0.0241
     29 H          10.9901    1.8568   16.0660 H       1  UNL1        0.0241
     30 C           9.4317    3.8279   18.4278 C.3     1  UNL1       -0.0517
     31 H           8.4158    3.9942   18.7769 H       1  UNL1        0.0241
     32 H           9.8455    4.7703   18.0767 H       1  UNL1        0.0241
     33 H          10.0294    3.4846   19.2705 H       1  UNL1        0.0241
     34 C           8.9589    1.4622   17.9175 C.ar    1  UNL1       -0.0374
     35 C           7.5892    1.3178   18.1325 C.ar    1  UNL1       -0.0577
     36 H           6.9263    2.1353   17.8868 H       1  UNL1        0.0621
     37 C           7.0614    0.1422   18.6297 C.ar    1  UNL1       -0.0615
     38 H           5.9937    0.0435   18.7630 H       1  UNL1        0.0618
     39 C           7.8993   -0.9151   18.9443 C.ar    1  UNL1       -0.0617
     40 H           7.4861   -1.8380   19.3244 H       1  UNL1        0.0618
     41 C           9.2630   -0.7744   18.7659 C.ar    1  UNL1       -0.0615
     42 H           9.9281   -1.5885   19.0171 H       1  UNL1        0.0618
     43 C           9.7883    0.4026   18.2550 C.ar    1  UNL1       -0.0577
     44 H          10.8557    0.4774   18.1168 H       1  UNL1        0.0621
     45 C           6.2925    5.9201   14.9131 C.3     1  UNL1        0.0187
     46 C           4.9696    5.7422   15.6730 C.3     1  UNL1       -0.0516
     47 H           5.1548    5.5640   16.7308 H       1  UNL1        0.0241
     48 H           4.4485    4.8694   15.2691 H       1  UNL1        0.0241
     49 H           4.3278    6.6136   15.5604 H       1  UNL1        0.0241
     50 C           5.9862    6.3712   13.4736 C.3     1  UNL1       -0.0516
     51 H           5.5795    7.3820   13.4928 H       1  UNL1        0.0241
     52 H           5.2661    5.7035   13.0038 H       1  UNL1        0.0241
     53 H           6.8937    6.3779   12.8745 H       1  UNL1        0.0241
     54 C           7.1794    7.0059   15.5012 C.ar    1  UNL1       -0.0373
     55 C           6.7470    7.9031   16.4677 C.ar    1  UNL1       -0.0577
     56 H           5.7506    7.8326   16.8741 H       1  UNL1        0.0621
     57 C           7.5837    8.9060   16.9320 C.ar    1  UNL1       -0.0615
     58 H           7.2252    9.5919   17.6864 H       1  UNL1        0.0618
     59 C           8.8679    9.0325   16.4373 C.ar    1  UNL1       -0.0617
     60 H           9.5189    9.8139   16.8012 H       1  UNL1        0.0618
     61 C           9.3114    8.1461   15.4693 C.ar    1  UNL1       -0.0615
     62 H          10.3133    8.2340   15.0737 H       1  UNL1        0.0618
     63 C           8.4750    7.1492   15.0072 C.ar    1  UNL1       -0.0577
     64 H           8.8339    6.4554   14.2607 H       1  UNL1        0.0621
     65 O           3.3077    2.3975   14.8868 O.3     1  UNL1       -0.2873
     66 C           2.9669    1.3004   15.5384 C.ar    1  UNL1        0.1873
     67 C           3.9053    0.2484   15.6705 C.ar    1  UNL1        0.0138
     68 C           3.5694   -0.9230   16.3228 C.ar    1  UNL1       -0.0497
     69 H           4.3191   -1.6957   16.4346 H       1  UNL1        0.0625
     70 C           2.2979   -1.1223   16.8425 C.ar    1  UNL1       -0.0366
     71 C           1.3814   -0.0896   16.7173 C.ar    1  UNL1       -0.0501
     72 H           0.3856   -0.2266   17.1046 H       1  UNL1        0.0625
     73 C           1.6918    1.1290   16.1311 C.ar    1  UNL1        0.0098
     74 C           5.3097    0.4397   15.1667 C.3     1  UNL1        0.0281
     75 H           5.7393    1.2989   15.6949 H       1  UNL1        0.0477
     76 H           5.9136   -0.4480   15.4185 H       1  UNL1        0.0477
     77 C           1.9818   -2.4534   17.5061 C.3     1  UNL1        0.0151
     78 C           1.8291   -3.4978   16.3908 C.3     1  UNL1       -0.0517
     79 H           2.7660   -3.6376   15.8562 H       1  UNL1        0.0241
     80 H           1.0789   -3.1540   15.6806 H       1  UNL1        0.0241
     81 H           1.5008   -4.4540   16.7917 H       1  UNL1        0.0241
     82 C           0.6812   -2.4246   18.3217 C.3     1  UNL1       -0.0517
     83 H           0.5736   -3.3643   18.8608 H       1  UNL1        0.0241
     84 H          -0.1836   -2.3035   17.6735 H       1  UNL1        0.0241
     85 H           0.6938   -1.6155   19.0472 H       1  UNL1        0.0241
     86 C           3.1068   -2.7764   18.4773 C.ar    1  UNL1       -0.0374
     87 C           3.5166   -1.7844   19.3651 C.ar    1  UNL1       -0.0577
     88 H           3.0511   -0.8103   19.3172 H       1  UNL1        0.0621
     89 C           4.5121   -2.0222   20.2928 C.ar    1  UNL1       -0.0615
     90 H           4.8152   -1.2380   20.9715 H       1  UNL1        0.0618
     91 C           5.1233   -3.2639   20.3522 C.ar    1  UNL1       -0.0617
     92 H           5.9012   -3.4546   21.0773 H       1  UNL1        0.0618
     93 C           4.7253   -4.2576   19.4775 C.ar    1  UNL1       -0.0615
     94 H           5.1940   -5.2308   19.5148 H       1  UNL1        0.0618
     95 C           3.7242   -4.0169   18.5499 C.ar    1  UNL1       -0.0577
     96 H           3.4341   -4.8143   17.8837 H       1  UNL1        0.0621
     97 C           0.6509    2.2487   16.0928 C.3     1  UNL1        0.0187
     98 C           1.2577    3.5810   16.5713 C.3     1  UNL1       -0.0516
     99 H           0.4854    4.3484   16.5874 H       1  UNL1        0.0241
    100 H           2.0559    3.8936   15.9051 H       1  UNL1        0.0241
    101 H           1.6692    3.4842   17.5723 H       1  UNL1        0.0241
    102 C           0.1988    2.4177   14.6352 C.3     1  UNL1       -0.0516
    103 H          -0.2935    1.5154   14.2775 H       1  UNL1        0.0241
    104 H           1.0726    2.6106   14.0076 H       1  UNL1        0.0241
    105 H          -0.4832    3.2599   14.5385 H       1  UNL1        0.0241
    106 C          -0.5112    1.9553   17.0314 C.ar    1  UNL1       -0.0373
    107 C          -1.8316    1.8782   16.6102 C.ar    1  UNL1       -0.0577
    108 H          -2.0856    1.9976   15.5693 H       1  UNL1        0.0621
    109 C          -2.8577    1.6463   17.5133 C.ar    1  UNL1       -0.0615
    110 H          -3.8767    1.5923   17.1573 H       1  UNL1        0.0618
    111 C          -2.5861    1.4840   18.8581 C.ar    1  UNL1       -0.0617
    112 H          -3.3863    1.3021   19.5603 H       1  UNL1        0.0618
    113 C          -1.2735    1.5560   19.2947 C.ar    1  UNL1       -0.0615
    114 H          -1.0441    1.4280   20.3430 H       1  UNL1        0.0618
    115 C          -0.2546    1.7911   18.3930 C.ar    1  UNL1       -0.0577
    116 H           0.7649    1.8290   18.7479 H       1  UNL1        0.0621
@<TRIPOS>BOND
     1     2     1    1
     2     3     1    1
     3    11     9    1
     4     7     6    1
     5     1     5    1
     6     1     4    1
     7    24    22    1
     8     5     6    1
     9     6     9    1
    10     6     8    1
    11    53    50    1
    12     9    10    1
    13     9    12    1
    14    52    50    1
    15    13    14    1
    16    22    23    1
    17    22    12    1
    18    22    15    1
    19    50    51    1
    20    50    45    1
    21    12    74    1
    22   104   102    1
    23    14    15   ar
    24    14    21   ar
    25    64    63    1
    26   103   102    1
    27    15    16   ar
    28   105   102    1
    29   102    97    1
    30    65    66    1
    31    45    21    1
    32    45    54    1
    33    45    46    1
    34    21    19   ar
    35    63    61   ar
    36    63    54   ar
    37    62    61    1
    38    74    76    1
    39    74    67    1
    40    74    75    1
    41    16    17    1
    42    16    18   ar
    43    48    46    1
    44    61    59   ar
    45    54    55   ar
    46    66    67   ar
    47    66    73   ar
    48    49    46    1
    49   108   107    1
    50    67    68   ar
    51    46    47    1
    52    80    78    1
    53    79    78    1
    54   100    98    1
    55    19    18   ar
    56    19    20    1
    57    29    26    1
    58    97    73    1
    59    97    98    1
    60    97   106    1
    61    73    71   ar
    62    18    25    1
    63    28    26    1
    64    68    69    1
    65    68    70   ar
    66    78    81    1
    67    78    77    1
    68    59    60    1
    69    59    57   ar
    70    55    56    1
    71    55    57   ar
    72    98    99    1
    73    98   101    1
    74   107   106   ar
    75   107   109   ar
    76    71    70   ar
    77    71    72    1
    78    26    25    1
    79    26    27    1
    80    70    77    1
    81    57    58    1
    82   106   115   ar
    83   110   109    1
    84    25    34    1
    85    25    30    1
    86    77    82    1
    87    77    86    1
    88   109   111   ar
    89    84    82    1
    90    96    95    1
    91    36    35    1
    92    34    35   ar
    93    34    43   ar
    94    32    30    1
    95    44    43    1
    96    35    37   ar
    97    43    41   ar
    98    82    83    1
    99    82    85    1
   100   115   116    1
   101   115   113   ar
   102    30    31    1
   103    30    33    1
   104    86    95   ar
   105    86    87   ar
   106    95    93   ar
   107    37    38    1
   108    37    39   ar
   109    41    39   ar
   110    41    42    1
   111   111   113   ar
   112   111   112    1
   113    39    40    1
   114   113   114    1
   115    88    87    1
   116    87    89   ar
   117    93    94    1
   118    93    91   ar
   119    89    91   ar
   120    89    90    1
   121    91    92    1
