@<TRIPOS>MOLECULE
1,8,13,49
 84 87 0 0 0
SMALL
GASTEIGER

@<TRIPOS>ATOM
      1 N           5.5931    2.9709    1.5671 N.3     1  UNL1       -0.2916
      2 C           4.2620    2.7108    2.1236 C.3     1  UNL1        0.0230
      3 H           4.2668    1.6942    2.5319 H       1  UNL1        0.0449
      4 H           3.4881    2.7744    1.3399 H       1  UNL1        0.0449
      5 C           3.9043    3.6673    3.2645 C.3     1  UNL1        0.0600
      6 H           3.5868    4.6494    2.8870 H       1  UNL1        0.0572
      7 H           3.0806    3.2282    3.8468 H       1  UNL1        0.0572
      8 O           5.0504    3.8186    4.0911 O.3     1  UNL1       -0.3817
      9 C           4.7124    4.2948    5.3825 C.3     1  UNL1        0.0365
     10 H           4.2900    5.3045    5.3243 H       1  UNL1        0.0523
     11 H           5.6323    4.2942    5.9657 H       1  UNL1        0.0523
     12 H           3.9880    3.6244    5.8586 H       1  UNL1        0.0523
     13 O           7.2153    5.2506    2.6365 O.3     1  UNL1       -0.2873
     14 C           6.1811    5.9622    2.2346 C.ar    1  UNL1        0.1873
     15 C           5.2788    5.4474    1.2761 C.ar    1  UNL1        0.0138
     16 C           4.1763    6.1893    0.8806 C.ar    1  UNL1       -0.0508
     17 H           3.5004    5.7772    0.1423 H       1  UNL1        0.0624
     18 C           3.9258    7.4478    1.4021 C.ar    1  UNL1       -0.0496
     19 C           4.8388    7.9736    2.3087 C.ar    1  UNL1       -0.0512
     20 H           4.6570    8.9669    2.6880 H       1  UNL1        0.0624
     21 C           5.9611    7.2774    2.7179 C.ar    1  UNL1        0.0098
     22 C           5.5560    4.1159    0.6323 C.3     1  UNL1        0.0281
     23 H           4.8011    3.9242   -0.1492 H       1  UNL1        0.0477
     24 H           6.5421    4.1646    0.1517 H       1  UNL1        0.0477
     25 C           2.7047    8.2208    0.9984 C.3     1  UNL1       -0.0397
     26 H           2.4594    8.0370   -0.0454 H       1  UNL1        0.0278
     27 H           2.8577    9.2879    1.1394 H       1  UNL1        0.0278
     28 H           1.8467    7.9203    1.6021 H       1  UNL1        0.0278
     29 C           6.9926    7.8736    3.6666 C.3     1  UNL1        0.0187
     30 C           6.8513    7.1681    5.0241 C.3     1  UNL1       -0.0516
     31 H           5.8196    7.2538    5.3611 H       1  UNL1        0.0241
     32 H           7.4859    7.6308    5.7758 H       1  UNL1        0.0241
     33 H           7.1093    6.1105    4.9353 H       1  UNL1        0.0241
     34 C           6.8053    9.3834    3.8870 C.3     1  UNL1       -0.0516
     35 H           6.8030    9.9164    2.9395 H       1  UNL1        0.0241
     36 H           7.6321    9.7614    4.4854 H       1  UNL1        0.0241
     37 H           5.8798    9.5900    4.4195 H       1  UNL1        0.0241
     38 C           8.3736    7.7118    3.0523 C.ar    1  UNL1       -0.0372
     39 C           8.5327    7.8863    1.6805 C.ar    1  UNL1       -0.0564
     40 H           7.6662    8.0704    1.0628 H       1  UNL1        0.0621
     41 C           9.7777    7.8194    1.0854 C.ar    1  UNL1       -0.0431
     42 H           9.8833    7.9496    0.0194 H       1  UNL1        0.0632
     43 C          10.8922    7.5878    1.8726 C.ar    1  UNL1        0.0410
     44 C          10.7662    7.4305    3.2402 C.ar    1  UNL1       -0.0431
     45 H          11.6404    7.2591    3.8493 H       1  UNL1        0.0632
     46 C           9.5113    7.4997    3.8195 C.ar    1  UNL1       -0.0564
     47 H           9.4366    7.3897    4.8890 H       1  UNL1        0.0621
     48 CL         12.4581    7.5037    1.1392 Cl      1  UNL1       -0.0835
     49 O           8.3136    2.4420    2.1852 O.3     1  UNL1       -0.2873
     50 C           8.4658    2.2628    0.8890 C.ar    1  UNL1        0.1873
     51 C           9.7197    2.3864    0.2397 C.ar    1  UNL1        0.0098
     52 C           9.7715    2.2304   -1.1342 C.ar    1  UNL1       -0.0512
     53 H          10.7129    2.3707   -1.6452 H       1  UNL1        0.0624
     54 C           8.6582    1.9030   -1.9009 C.ar    1  UNL1       -0.0496
     55 C           7.4422    1.7489   -1.2583 C.ar    1  UNL1       -0.0508
     56 H           6.5601    1.4924   -1.8305 H       1  UNL1        0.0624
     57 C           7.3357    1.9276    0.1111 C.ar    1  UNL1        0.0138
     58 C           6.0129    1.7640    0.8127 C.3     1  UNL1        0.0281
     59 H           5.2402    1.5139    0.0662 H       1  UNL1        0.0477
     60 H           6.0892    0.9384    1.5345 H       1  UNL1        0.0477
     61 C           8.7914    1.7297   -3.3847 C.3     1  UNL1       -0.0397
     62 H           7.8252    1.5296   -3.8411 H       1  UNL1        0.0278
     63 H           9.4600    0.8999   -3.6118 H       1  UNL1        0.0278
     64 H           9.2121    2.6265   -3.8376 H       1  UNL1        0.0278
     65 C          10.9552    2.8028    1.0327 C.3     1  UNL1        0.0187
     66 C          10.7413    4.2719    1.4236 C.3     1  UNL1       -0.0516
     67 H          11.5391    4.6221    2.0743 H       1  UNL1        0.0241
     68 H           9.7903    4.3758    1.9558 H       1  UNL1        0.0241
     69 H          10.6966    4.9001    0.5365 H       1  UNL1        0.0241
     70 C          11.1258    1.9650    2.3147 C.3     1  UNL1       -0.0516
     71 H          11.1642    0.9041    2.0805 H       1  UNL1        0.0241
     72 H          10.2941    2.1381    2.9949 H       1  UNL1        0.0241
     73 H          12.0574    2.2433    2.8059 H       1  UNL1        0.0241
     74 C          12.2278    2.5963    0.2266 C.ar    1  UNL1       -0.0372
     75 C          12.5322    1.3160   -0.2355 C.ar    1  UNL1       -0.0564
     76 H          11.8361    0.5094   -0.0610 H       1  UNL1        0.0621
     77 C          13.6945    1.0540   -0.9333 C.ar    1  UNL1       -0.0431
     78 H          13.9115    0.0578   -1.2861 H       1  UNL1        0.0632
     79 C          14.5843    2.0874   -1.1777 C.ar    1  UNL1        0.0410
     80 C          14.3097    3.3664   -0.7319 C.ar    1  UNL1       -0.0431
     81 H          15.0048    4.1685   -0.9258 H       1  UNL1        0.0632
     82 C          13.1374    3.6125   -0.0352 C.ar    1  UNL1       -0.0564
     83 H          12.9503    4.6197    0.2979 H       1  UNL1        0.0621
     84 CL         16.0473    1.7725   -2.0500 Cl      1  UNL1       -0.0835
@<TRIPOS>BOND
     1    62    61    1
     2    64    61    1
     3    63    61    1
     4    61    54    1
     5    84    79    1
     6    54    55   ar
     7    54    52   ar
     8    56    55    1
     9    53    52    1
    10    78    77    1
    11    55    57   ar
    12    79    77   ar
    13    79    80   ar
    14    52    51   ar
    15    77    75   ar
    16    81    80    1
    17    80    82   ar
    18    75    76    1
    19    75    74   ar
    20    23    22    1
    21    26    25    1
    22    82    74   ar
    23    82    83    1
    24    42    41    1
    25    59    58    1
    26    57    58    1
    27    57    50   ar
    28    17    16    1
    29    24    22    1
    30    74    65    1
    31    51    50   ar
    32    51    65    1
    33    69    66    1
    34    22    15    1
    35    22     1    1
    36    58    60    1
    37    58     1    1
    38    16    15   ar
    39    16    18   ar
    40    50    49    1
    41    25    27    1
    42    25    18    1
    43    25    28    1
    44    65    66    1
    45    65    70    1
    46    40    39    1
    47    41    39   ar
    48    41    43   ar
    49    48    43    1
    50    15    14   ar
    51     4     2    1
    52    18    19   ar
    53    66    68    1
    54    66    67    1
    55     1     2    1
    56    39    38   ar
    57    43    44   ar
    58    71    70    1
    59     2     3    1
    60     2     5    1
    61    14    13    1
    62    14    21   ar
    63    19    20    1
    64    19    21   ar
    65    70    73    1
    66    70    72    1
    67    21    29    1
    68     6     5    1
    69    35    34    1
    70    38    29    1
    71    38    46   ar
    72    44    46   ar
    73    44    45    1
    74     5     7    1
    75     5     8    1
    76    29    34    1
    77    29    30    1
    78    46    47    1
    79    34    37    1
    80    34    36    1
    81     8     9    1
    82    33    30    1
    83    30    31    1
    84    30    32    1
    85    10     9    1
    86     9    12    1
    87     9    11    1
