@<TRIPOS>MOLECULE
1,8,13,65
 116 121 0 0 0
SMALL
GASTEIGER

@<TRIPOS>ATOM
      1 N          11.7244    2.8325    5.8398 N.3     1  UNL1       -0.2916
      2 C          10.4039    2.9762    6.4711 C.3     1  UNL1        0.0230
      3 H           9.9877    3.9492    6.1954 H       1  UNL1        0.0449
      4 H          10.4756    2.9265    7.5652 H       1  UNL1        0.0449
      5 C           9.4533    1.8852    5.9738 C.3     1  UNL1        0.0600
      6 H           9.8229    0.8986    6.2751 H       1  UNL1        0.0572
      7 H           8.4488    2.0363    6.3914 H       1  UNL1        0.0572
      8 O           9.3960    1.8683    4.5520 O.3     1  UNL1       -0.3817
      9 C           8.4707    2.8036    4.0123 C.3     1  UNL1        0.0365
     10 H           8.4069    2.5899    2.9470 H       1  UNL1        0.0523
     11 H           8.8001    3.8382    4.1478 H       1  UNL1        0.0523
     12 H           7.4852    2.6673    4.4730 H       1  UNL1        0.0523
     13 O          12.5845    0.0527    4.8775 O.3     1  UNL1       -0.2873
     14 C          12.2707   -0.2619    6.1196 C.ar    1  UNL1        0.1873
     15 C          12.1939    0.7439    7.1089 C.ar    1  UNL1        0.0138
     16 C          12.6462    2.1331    6.7551 C.3     1  UNL1        0.0281
     17 H          12.7650    2.7246    7.6794 H       1  UNL1        0.0477
     18 H          13.6248    2.0724    6.2616 H       1  UNL1        0.0477
     19 C          12.0582   -1.6035    6.5381 C.ar    1  UNL1        0.0098
     20 C          11.6023   -1.8384    7.8197 C.ar    1  UNL1       -0.0501
     21 H          11.3857   -2.8481    8.1289 H       1  UNL1        0.0625
     22 C          11.4052   -0.8260    8.7568 C.ar    1  UNL1       -0.0366
     23 C          11.7620    0.4594    8.3955 C.ar    1  UNL1       -0.0497
     24 H          11.7195    1.2652    9.1137 H       1  UNL1        0.0625
     25 C          12.4065   -2.7368    5.5839 C.3     1  UNL1        0.0187
     26 C          11.4411   -2.7002    4.3924 C.3     1  UNL1       -0.0516
     27 H          10.4186   -2.6710    4.7641 H       1  UNL1        0.0241
     28 H          11.5450   -3.5881    3.7740 H       1  UNL1        0.0241
     29 H          11.6199   -1.8191    3.7783 H       1  UNL1        0.0241
     30 C          12.3035   -4.1230    6.2407 C.3     1  UNL1       -0.0516
     31 H          11.2760   -4.3483    6.5184 H       1  UNL1        0.0241
     32 H          12.9385   -4.1866    7.1216 H       1  UNL1        0.0241
     33 H          12.6379   -4.8773    5.5308 H       1  UNL1        0.0241
     34 C          13.8624   -2.5828    5.1695 C.ar    1  UNL1       -0.0373
     35 C          14.3275   -3.0248    3.9381 C.ar    1  UNL1       -0.0577
     36 H          13.6418   -3.4381    3.2161 H       1  UNL1        0.0621
     37 C          15.6710   -2.9436    3.6131 C.ar    1  UNL1       -0.0615
     38 H          16.0085   -3.2906    2.6473 H       1  UNL1        0.0618
     39 C          16.5792   -2.4208    4.5151 C.ar    1  UNL1       -0.0617
     40 H          17.6269   -2.3554    4.2604 H       1  UNL1        0.0618
     41 C          16.1320   -1.9917    5.7529 C.ar    1  UNL1       -0.0615
     42 H          16.8317   -1.5903    6.4727 H       1  UNL1        0.0618
     43 C          14.7902   -2.0808    6.0777 C.ar    1  UNL1       -0.0577
     44 H          14.4583   -1.7514    7.0522 H       1  UNL1        0.0621
     45 C          10.8865   -1.2050   10.1341 C.3     1  UNL1        0.0151
     46 C          10.4178    0.0094   10.9494 C.3     1  UNL1       -0.0517
     47 H           9.9493   -0.3331   11.8703 H       1  UNL1        0.0241
     48 H           9.6874    0.5923   10.3930 H       1  UNL1        0.0241
     49 H          11.2578    0.6473   11.2143 H       1  UNL1        0.0241
     50 C          12.0365   -1.8819   10.8931 C.3     1  UNL1       -0.0517
     51 H          11.7675   -2.0685   11.9304 H       1  UNL1        0.0241
     52 H          12.9061   -1.2272   10.8808 H       1  UNL1        0.0241
     53 H          12.3138   -2.8210   10.4212 H       1  UNL1        0.0241
     54 C           9.6758   -2.1071    9.9556 C.ar    1  UNL1       -0.0374
     55 C           8.7016   -1.7336    9.0333 C.ar    1  UNL1       -0.0577
     56 H           8.8464   -0.8372    8.4461 H       1  UNL1        0.0621
     57 C           7.5644   -2.4954    8.8475 C.ar    1  UNL1       -0.0615
     58 H           6.8240   -2.1885    8.1226 H       1  UNL1        0.0618
     59 C           7.3743   -3.6509    9.5868 C.ar    1  UNL1       -0.0617
     60 H           6.4872   -4.2502    9.4435 H       1  UNL1        0.0618
     61 C           8.3310   -4.0297   10.5100 C.ar    1  UNL1       -0.0615
     62 H           8.1929   -4.9286   11.0936 H       1  UNL1        0.0618
     63 C           9.4708   -3.2638   10.6941 C.ar    1  UNL1       -0.0577
     64 H          10.1993   -3.5853   11.4217 H       1  UNL1        0.0621
     65 O          11.9437    3.3623    2.8957 O.3     1  UNL1       -0.2873
     66 C          11.3412    4.4769    3.2474 C.ar    1  UNL1        0.1873
     67 C          11.4260    4.9406    4.5793 C.ar    1  UNL1        0.0138
     68 C          12.2822    4.1701    5.5449 C.3     1  UNL1        0.0281
     69 H          13.2771    4.0258    5.1059 H       1  UNL1        0.0477
     70 H          12.3967    4.7405    6.4818 H       1  UNL1        0.0477
     71 C          10.6351    5.2894    2.3174 C.ar    1  UNL1        0.0098
     72 C           9.9579    6.4005    2.7766 C.ar    1  UNL1       -0.0501
     73 H           9.3870    6.9987    2.0846 H       1  UNL1        0.0625
     74 C           9.9712    6.8044    4.1110 C.ar    1  UNL1       -0.0366
     75 C          10.7475    6.0774    4.9946 C.ar    1  UNL1       -0.0497
     76 H          10.8475    6.3872    6.0252 H       1  UNL1        0.0625
     77 C          10.6877    4.9241    0.8413 C.3     1  UNL1        0.0187
     78 C          10.0555    5.9956   -0.0625 C.3     1  UNL1       -0.0516
     79 H          10.1945    5.7083   -1.1031 H       1  UNL1        0.0241
     80 H          10.5324    6.9619    0.0853 H       1  UNL1        0.0241
     81 H           8.9877    6.0881    0.1253 H       1  UNL1        0.0241
     82 C           9.9175    3.6129    0.6335 C.3     1  UNL1       -0.0516
     83 H           9.8353    3.3719   -0.4234 H       1  UNL1        0.0241
     84 H           8.9080    3.7352    1.0260 H       1  UNL1        0.0241
     85 H          10.4129    2.7859    1.1440 H       1  UNL1        0.0241
     86 C          12.1450    4.8348    0.4153 C.ar    1  UNL1       -0.0373
     87 C          12.5716    3.9836   -0.5947 C.ar    1  UNL1       -0.0577
     88 H          11.8816    3.2985   -1.0596 H       1  UNL1        0.0621
     89 C          13.8900    3.9869   -1.0184 C.ar    1  UNL1       -0.0615
     90 H          14.1981    3.3090   -1.8010 H       1  UNL1        0.0618
     91 C          14.8088    4.8448   -0.4430 C.ar    1  UNL1       -0.0617
     92 H          15.8378    4.8450   -0.7717 H       1  UNL1        0.0618
     93 C          14.3935    5.7101    0.5551 C.ar    1  UNL1       -0.0615
     94 H          15.0984    6.3925    1.0090 H       1  UNL1        0.0618
     95 C          13.0746    5.7097    0.9713 C.ar    1  UNL1       -0.0577
     96 H          12.7630    6.3973    1.7449 H       1  UNL1        0.0621
     97 C           9.1929    8.0523    4.4962 C.3     1  UNL1        0.0151
     98 C           9.9833    9.2638    3.9827 C.3     1  UNL1       -0.0517
     99 H          11.0005    9.2147    4.3670 H       1  UNL1        0.0241
    100 H           9.5374   10.1965    4.3211 H       1  UNL1        0.0241
    101 H          10.0328    9.2634    2.8967 H       1  UNL1        0.0241
    102 C           9.0146    8.2022    6.0145 C.3     1  UNL1       -0.0517
    103 H           9.9683    8.3956    6.4999 H       1  UNL1        0.0241
    104 H           8.5692    7.3091    6.4464 H       1  UNL1        0.0241
    105 H           8.3541    9.0430    6.2189 H       1  UNL1        0.0241
    106 C           7.7997    7.9506    3.8961 C.ar    1  UNL1       -0.0374
    107 C           7.1833    8.9886    3.2117 C.ar    1  UNL1       -0.0577
    108 H           7.6970    9.9243    3.0578 H       1  UNL1        0.0621
    109 C           5.8999    8.8438    2.7102 C.ar    1  UNL1       -0.0615
    110 H           5.4400    9.6642    2.1782 H       1  UNL1        0.0618
    111 C           5.2081    7.6598    2.8858 C.ar    1  UNL1       -0.0617
    112 H           4.2082    7.5486    2.4928 H       1  UNL1        0.0618
    113 C           5.8098    6.6178    3.5714 C.ar    1  UNL1       -0.0615
    114 H           5.2796    5.6873    3.7166 H       1  UNL1        0.0618
    115 C           7.0891    6.7660    4.0706 C.ar    1  UNL1       -0.0577
    116 H           7.5524    5.9453    4.6001 H       1  UNL1        0.0621
@<TRIPOS>BOND
     1    90    89    1
     2    79    78    1
     3    88    87    1
     4    89    87   ar
     5    89    91   ar
     6    92    91    1
     7    87    86   ar
     8    91    93   ar
     9    83    82    1
    10    78    80    1
    11    78    81    1
    12    78    77    1
    13    86    77    1
    14    86    95   ar
    15    93    95   ar
    16    93    94    1
    17    82    77    1
    18    82    84    1
    19    82    85    1
    20    77    71    1
    21    95    96    1
    22    73    72    1
    23   110   109    1
    24    71    72   ar
    25    71    66   ar
    26   112   111    1
    27    38    37    1
    28   109   111   ar
    29   109   107   ar
    30    72    74   ar
    31   111   113   ar
    32    65    66    1
    33   101    98    1
    34    10     9    1
    35   108   107    1
    36   107   106   ar
    37    36    35    1
    38    66    67   ar
    39   113   114    1
    40   113   115   ar
    41    37    35   ar
    42    37    39   ar
    43    28    26    1
    44    29    26    1
    45   106   115   ar
    46   106    97    1
    47    35    34   ar
    48    98   100    1
    49    98    99    1
    50    98    97    1
    51     9    11    1
    52     9    12    1
    53     9     8    1
    54   115   116    1
    55    74    97    1
    56    74    75   ar
    57    40    39    1
    58    26    27    1
    59    26    25    1
    60    97   102    1
    61    39    41   ar
    62     8     5    1
    63    67    75   ar
    64    67    68    1
    65    13    14    1
    66    75    76    1
    67    69    68    1
    68    34    25    1
    69    34    43   ar
    70    33    30    1
    71    68     1    1
    72    68    70    1
    73    25    30    1
    74    25    19    1
    75    41    43   ar
    76    41    42    1
    77     1     2    1
    78     1    16    1
    79     5     6    1
    80     5     7    1
    81     5     2    1
    82   102   105    1
    83   102   104    1
    84   102   103    1
    85    43    44    1
    86    14    19   ar
    87    14    15   ar
    88     3     2    1
    89    30    31    1
    90    30    32    1
    91    18    16    1
    92     2     4    1
    93    19    20   ar
    94    16    15    1
    95    16    17    1
    96    15    23   ar
    97    20    21    1
    98    20    22   ar
    99    58    57    1
   100    23    22   ar
   101    23    24    1
   102    56    55    1
   103    22    45    1
   104    57    55   ar
   105    57    59   ar
   106    55    54   ar
   107    60    59    1
   108    59    61   ar
   109    54    45    1
   110    54    63   ar
   111    45    50    1
   112    45    46    1
   113    48    46    1
   114    53    50    1
   115    61    63   ar
   116    61    62    1
   117    63    64    1
   118    52    50    1
   119    50    51    1
   120    46    49    1
   121    46    47    1
