@<TRIPOS>MOLECULE
1,2,3,4
 61 61 0 0 0
SMALL
GASTEIGER

@<TRIPOS>ATOM
      1 O           6.3373   14.8871   17.7052 O.3     1  UNL1       -0.3817
      2 O           7.5829   14.2014   20.9693 O.3     1  UNL1       -0.3817
      3 O           6.9937   11.1222   20.3511 O.3     1  UNL1       -0.2873
      4 N           5.0767   13.4812   19.8661 N.3     1  UNL1       -0.2937
      5 C           7.0229   15.9261   17.0336 C.3     1  UNL1        0.0365
      6 C           5.0574   15.3025   18.1395 C.3     1  UNL1        0.0600
      7 C           4.3274   14.1261   18.7847 C.3     1  UNL1        0.0227
      8 C           8.7918   14.2587   21.7064 C.3     1  UNL1        0.0365
      9 C           6.4593   14.1482   21.8388 C.3     1  UNL1        0.0600
     10 C           5.1726   14.3571   21.0379 C.3     1  UNL1        0.0227
     11 C           6.2046   10.9268   21.3768 C.ar    1  UNL1        0.1870
     12 C           6.5988   10.1433   22.4974 C.ar    1  UNL1        0.0052
     13 C           5.7464   10.0332   23.5817 C.ar    1  UNL1       -0.0507
     14 C           4.4948   10.6362   23.6384 C.ar    1  UNL1       -0.0412
     15 C           4.0950   11.3552   22.5228 C.ar    1  UNL1       -0.0500
     16 C           4.9087   11.4990   21.4136 C.ar    1  UNL1        0.0138
     17 C           4.3705   12.2253   20.2109 C.3     1  UNL1        0.0278
     18 C           7.9493    9.4354   22.4786 C.3     1  UNL1       -0.0090
     19 C           9.0678   10.4834   22.3992 C.3     1  UNL1       -0.0559
     20 C           8.0118    8.5107   21.2550 C.3     1  UNL1       -0.0559
     21 C           8.2033    8.5768   23.7230 C.3     1  UNL1       -0.0559
     22 C           3.5678   10.5298   24.8404 C.3     1  UNL1       -0.0127
     23 C           2.2490    9.8722   24.4097 C.3     1  UNL1       -0.0560
     24 C           3.2878   11.9395   25.3823 C.3     1  UNL1       -0.0560
     25 C           4.1626    9.6945   25.9772 C.3     1  UNL1       -0.0560
     26 H           6.4757   16.2377   16.1358 H       1  UNL1        0.0523
     27 H           7.9963   15.5335   16.7505 H       1  UNL1        0.0523
     28 H           7.1564   16.7958   17.6877 H       1  UNL1        0.0523
     29 H           4.4618   15.6514   17.2809 H       1  UNL1        0.0572
     30 H           5.1629   16.1507   18.8336 H       1  UNL1        0.0572
     31 H           3.3443   14.4825   19.1390 H       1  UNL1        0.0449
     32 H           4.1650   13.3745   18.0065 H       1  UNL1        0.0449
     33 H           8.8360   15.1845   22.2940 H       1  UNL1        0.0523
     34 H           9.6157   14.2358   20.9949 H       1  UNL1        0.0523
     35 H           8.8821   13.4044   22.3842 H       1  UNL1        0.0523
     36 H           6.5359   14.9545   22.5852 H       1  UNL1        0.0572
     37 H           6.4404   13.1864   22.3659 H       1  UNL1        0.0572
     38 H           4.3193   14.2056   21.7144 H       1  UNL1        0.0449
     39 H           5.1625   15.3961   20.7043 H       1  UNL1        0.0449
     40 H           6.0685    9.4487   24.4239 H       1  UNL1        0.0625
     41 H           3.1151   11.8144   22.4988 H       1  UNL1        0.0625
     42 H           3.3056   12.4522   20.3908 H       1  UNL1        0.0477
     43 H           4.4368   11.5648   19.3361 H       1  UNL1        0.0477
     44 H           9.0252   11.1436   23.2653 H       1  UNL1        0.0238
     45 H           8.9709   11.0789   21.4924 H       1  UNL1        0.0238
     46 H          10.0396    9.9955   22.3925 H       1  UNL1        0.0238
     47 H           8.9882    8.0334   21.1903 H       1  UNL1        0.0238
     48 H           7.8359    9.0768   20.3440 H       1  UNL1        0.0238
     49 H           7.2505    7.7368   21.3331 H       1  UNL1        0.0238
     50 H           9.1666    8.0799   23.6210 H       1  UNL1        0.0238
     51 H           7.4412    7.8089   23.8343 H       1  UNL1        0.0238
     52 H           8.2354    9.1833   24.6258 H       1  UNL1        0.0238
     53 H           2.4414    8.8835   23.9993 H       1  UNL1        0.0238
     54 H           1.7428   10.4616   23.6502 H       1  UNL1        0.0238
     55 H           1.5809    9.7698   25.2630 H       1  UNL1        0.0238
     56 H           2.6417   11.8880   26.2566 H       1  UNL1        0.0238
     57 H           2.7993   12.5586   24.6345 H       1  UNL1        0.0238
     58 H           4.2199   12.4227   25.6687 H       1  UNL1        0.0238
     59 H           4.3523    8.6744   25.6524 H       1  UNL1        0.0238
     60 H           3.4599    9.6577   26.8079 H       1  UNL1        0.0238
     61 H           5.0899   10.1315   26.3402 H       1  UNL1        0.0238
@<TRIPOS>BOND
     1    26     5    1
     2    27     5    1
     3     5    28    1
     4     5     1    1
     5    29     6    1
     6     1     6    1
     7    32     7    1
     8     6     7    1
     9     6    30    1
    10     7    31    1
    11     7     4    1
    12    43    17    1
    13     4    17    1
    14     4    10    1
    15    17    42    1
    16    17    16    1
    17    48    20    1
    18     3    11    1
    19    39    10    1
    20     2     8    1
    21     2     9    1
    22    34     8    1
    23    10    38    1
    24    10     9    1
    25    47    20    1
    26    20    49    1
    27    20    18    1
    28    11    16   ar
    29    11    12   ar
    30    16    15   ar
    31    45    19    1
    32     8    33    1
    33     8    35    1
    34     9    37    1
    35     9    36    1
    36    46    19    1
    37    19    18    1
    38    19    44    1
    39    18    12    1
    40    18    21    1
    41    12    13   ar
    42    41    15    1
    43    15    14   ar
    44    13    14   ar
    45    13    40    1
    46    50    21    1
    47    14    22    1
    48    54    23    1
    49    21    51    1
    50    21    52    1
    51    53    23    1
    52    23    22    1
    53    23    55    1
    54    57    24    1
    55    22    24    1
    56    22    25    1
    57    24    58    1
    58    24    56    1
    59    59    25    1
    60    25    61    1
    61    25    60    1
