@<TRIPOS>MOLECULE
1,2,4
 43 43 0 0 0
SMALL
GASTEIGER

@<TRIPOS>ATOM
      1 O           4.8903    6.0358    5.9319 O.3     1  UNL1       -0.2873
      2 O           2.8653    2.2923    4.5074 O.3     1  UNL1       -0.3817
      3 O           4.2183    2.9579    0.6323 O.3     1  UNL1       -0.3817
      4 N           3.9812    4.6040    3.3806 N.3     1  UNL1       -0.2937
      5 C           5.6884    6.5882    5.0437 C.ar    1  UNL1        0.1862
      6 C           6.9199    7.1573    5.4502 C.ar    1  UNL1       -0.0032
      7 C           7.7454    7.7467    4.5164 C.ar    1  UNL1       -0.0523
      8 H           8.6849    8.1735    4.8414 H       1  UNL1        0.0624
      9 C           7.4087    7.8091    3.1669 C.ar    1  UNL1       -0.0497
     10 C           6.2028    7.2579    2.7696 C.ar    1  UNL1       -0.0508
     11 H           5.9163    7.3013    1.7261 H       1  UNL1        0.0624
     12 C           5.3436    6.6560    3.6775 C.ar    1  UNL1        0.0138
     13 C           7.2834    7.1027    6.9039 C.3     1  UNL1       -0.0361
     14 H           8.3399    7.3150    7.0497 H       1  UNL1        0.0279
     15 H           7.0483    6.1171    7.3080 H       1  UNL1        0.0279
     16 H           6.6989    7.8340    7.4632 H       1  UNL1        0.0279
     17 C           8.3348    8.4629    2.1838 C.3     1  UNL1       -0.0397
     18 H           9.3246    8.0097    2.2298 H       1  UNL1        0.0278
     19 H           8.4446    9.5233    2.4108 H       1  UNL1        0.0278
     20 H           7.9555    8.3665    1.1692 H       1  UNL1        0.0278
     21 C           4.0291    6.0767    3.2293 C.3     1  UNL1        0.0278
     22 H           3.8352    6.3673    2.1854 H       1  UNL1        0.0477
     23 H           3.2250    6.4882    3.8496 H       1  UNL1        0.0477
     24 C           2.6594    4.1267    2.9568 C.3     1  UNL1        0.0227
     25 H           2.4762    4.3301    1.8917 H       1  UNL1        0.0449
     26 H           1.9112    4.6615    3.5527 H       1  UNL1        0.0449
     27 C           2.4756    2.6297    3.1823 C.3     1  UNL1        0.0600
     28 H           1.4154    2.3803    3.0357 H       1  UNL1        0.0572
     29 H           3.0703    2.0551    2.4597 H       1  UNL1        0.0572
     30 C           2.5805    0.9365    4.7965 C.3     1  UNL1        0.0365
     31 H           1.5029    0.7483    4.7408 H       1  UNL1        0.0523
     32 H           2.9377    0.7414    5.8053 H       1  UNL1        0.0523
     33 H           3.0921    0.2707    4.0918 H       1  UNL1        0.0523
     34 C           5.0866    3.9669    2.6530 C.3     1  UNL1        0.0227
     35 H           5.1524    2.9190    2.9543 H       1  UNL1        0.0449
     36 H           6.0037    4.4708    2.9683 H       1  UNL1        0.0449
     37 C           5.0346    4.0045    1.1193 C.3     1  UNL1        0.0600
     38 H           4.6609    4.9721    0.7550 H       1  UNL1        0.0572
     39 H           6.0574    3.8787    0.7331 H       1  UNL1        0.0572
     40 C           4.1870    2.8943   -0.7697 C.3     1  UNL1        0.0365
     41 H           3.7807    3.8175   -1.2019 H       1  UNL1        0.0523
     42 H           3.5423    2.0578   -1.0314 H       1  UNL1        0.0523
     43 H           5.1897    2.7271   -1.1816 H       1  UNL1        0.0523
@<TRIPOS>BOND
     1    41    40    1
     2    43    40    1
     3    42    40    1
     4    40     3    1
     5     3    37    1
     6    39    37    1
     7    38    37    1
     8    37    34    1
     9    20    17    1
    10    11    10    1
    11    25    24    1
    12    17    18    1
    13    17    19    1
    14    17     9    1
    15    22    21    1
    16    29    27    1
    17    34    35    1
    18    34    36    1
    19    34     4    1
    20    10     9   ar
    21    10    12   ar
    22    24    27    1
    23    24     4    1
    24    24    26    1
    25    28    27    1
    26     9     7   ar
    27    27     2    1
    28    21     4    1
    29    21    12    1
    30    21    23    1
    31    12     5   ar
    32    33    30    1
    33     2    30    1
    34     7     8    1
    35     7     6   ar
    36    31    30    1
    37    30    32    1
    38     5     6   ar
    39     5     1    1
    40     6    13    1
    41    13    14    1
    42    13    15    1
    43    13    16    1
