@<TRIPOS>MOLECULE
72,73,74
 74 76 0 0 0
SMALL
GASTEIGER

@<TRIPOS>ATOM
      1 SI          3.2126    1.8185    4.4111 Si      1  UNL1        0.0000
      2 SI          1.8229    4.7162    5.1818 Si      1  UNL1        0.0000
      3 F          -0.0440    7.1642    0.4269 F       1  UNL1        0.0000
      4 F          -2.2959    8.3202   -0.3500 F       1  UNL1        0.0000
      5 F          -4.6962    7.6126    0.7611 F       1  UNL1        0.0000
      6 F          -4.7429    5.6591    2.6899 F       1  UNL1        0.0000
      7 F          -2.4876    4.4993    3.4932 F       1  UNL1        0.0000
      8 F          -0.1744    4.2196   -0.0343 F       1  UNL1        0.0000
      9 F          -0.8429    1.7964   -0.9296 F       1  UNL1        0.0000
     10 F          -1.0792   -0.3071    0.8240 F       1  UNL1        0.0000
     11 F          -0.5974    0.1365    3.4858 F       1  UNL1        0.0000
     12 F           0.0402    2.4803    4.4144 F       1  UNL1        0.0000
     13 F           2.4693    3.7418    1.1523 F       1  UNL1        0.0000
     14 F           4.7523    4.8929    0.4532 F       1  UNL1        0.0000
     15 F           5.1840    7.5596    0.9377 F       1  UNL1        0.0000
     16 F           3.2313    9.0077    2.2080 F       1  UNL1        0.0000
     17 F           0.9552    7.8485    2.9504 F       1  UNL1        0.0000
     18 B           0.2103    5.0755    2.6477 B       1  UNL1        0.0000
     19 C           0.5969    5.4403    7.6766 C.3     1  UNL1        0.0000
     20 H           0.7016    5.0398    8.7000 H       1  UNL1        0.0000
     21 C          -0.8900    5.6799    7.4035 C.3     1  UNL1        0.0000
     22 H          -1.0257    6.2217    6.4734 H       1  UNL1        0.0000
     23 H          -1.3082    6.2767    8.2105 H       1  UNL1        0.0000
     24 H          -1.4391    4.7454    7.3481 H       1  UNL1        0.0000
     25 C           1.3352    6.7733    7.5992 C.3     1  UNL1        0.0000
     26 H           2.4035    6.6414    7.7364 H       1  UNL1        0.0000
     27 H           0.9646    7.4370    8.3764 H       1  UNL1        0.0000
     28 H           1.1643    7.2416    6.6351 H       1  UNL1        0.0000
     29 C           3.2888    5.9422    5.1058 C.3     1  UNL1        0.0000
     30 H           3.9394    5.8624    5.9705 H       1  UNL1        0.0000
     31 H           2.9715    6.9743    5.0191 H       1  UNL1        0.0000
     32 H           3.8845    5.7114    4.2296 H       1  UNL1        0.0000
     33 C           0.2585    5.2783    4.2696 C.3     1  UNL1        0.0000
     34 H          -0.5980    4.7803    4.7171 H       1  UNL1        0.0000
     35 H           0.1193    6.3413    4.4618 H       1  UNL1        0.0000
     36 C          -1.1353    5.8247    2.0604 C.ar    1  UNL1        0.0000
     37 C          -1.1669    6.7847    1.0527 C.ar    1  UNL1        0.0000
     38 C          -2.3405    7.3926    0.6136 C.ar    1  UNL1        0.0000
     39 C          -3.5609    7.0345    1.1688 C.ar    1  UNL1        0.0000
     40 C          -3.5794    6.0508    2.1482 C.ar    1  UNL1        0.0000
     41 C          -2.3864    5.4725    2.5606 C.ar    1  UNL1        0.0000
     42 C          -0.0319    3.5125    2.2139 C.ar    1  UNL1        0.0000
     43 C          -0.2783    3.2346    0.8653 C.ar    1  UNL1        0.0000
     44 C          -0.6261    1.9825    0.3754 C.ar    1  UNL1        0.0000
     45 C          -0.7531    0.9151    1.2571 C.ar    1  UNL1        0.0000
     46 C          -0.5181    1.1495    2.6010 C.ar    1  UNL1        0.0000
     47 C          -0.1674    2.4173    3.0534 C.ar    1  UNL1        0.0000
     48 C           1.5820    5.7376    2.0721 C.ar    1  UNL1        0.0000
     49 C           2.6008    5.0545    1.4269 C.ar    1  UNL1        0.0000
     50 C           3.8035    5.6373    1.0415 C.ar    1  UNL1        0.0000
     51 C           4.0287    6.9827    1.2878 C.ar    1  UNL1        0.0000
     52 C           3.0352    7.7118    1.9295 C.ar    1  UNL1        0.0000
     53 C           1.8574    7.0842    2.3088 C.ar    1  UNL1        0.0000
     54 C           2.7426    0.9979    2.7498 C.3     1  UNL1        0.0000
     55 H           1.8881    0.3370    2.8279 H       1  UNL1        0.0000
     56 H           3.5741    0.4138    2.3661 H       1  UNL1        0.0000
     57 H           2.5146    1.7398    1.9995 H       1  UNL1        0.0000
     58 C           5.1108    2.0730    4.3529 C.3     1  UNL1        0.0000
     59 H           5.3094    2.9972    3.8213 H       1  UNL1        0.0000
     60 H           5.6213    1.2832    3.8127 H       1  UNL1        0.0000
     61 H           5.5701    2.1597    5.3309 H       1  UNL1        0.0000
     62 C           2.9450   -0.6494    5.8340 C.3     1  UNL1        0.0000
     63 H           2.8956   -0.8331    6.9215 H       1  UNL1        0.0000
     64 C           4.3471   -1.0041    5.3500 C.3     1  UNL1        0.0000
     65 H           4.4076   -0.9069    4.2708 H       1  UNL1        0.0000
     66 H           4.5693   -2.0342    5.6176 H       1  UNL1        0.0000
     67 H           5.0965   -0.3621    5.8012 H       1  UNL1        0.0000
     68 C           1.9266   -1.5523    5.1370 C.3     1  UNL1        0.0000
     69 H           0.9108   -1.2753    5.4008 H       1  UNL1        0.0000
     70 H           2.0920   -2.5850    5.4334 H       1  UNL1        0.0000
     71 H           2.0364   -1.4847    4.0592 H       1  UNL1        0.0000
     72 N           2.4302    3.1192    5.1708 N.3     1  UNL1        0.0000
     73 O           1.1659    4.4440    6.8129 O.3     1  UNL1        0.0000
     74 O           2.6203    0.7387    5.6608 O.3     1  UNL1        0.0000
@<TRIPOS>BOND
     1     9    44    1
     2     4    38    1
     3     8    43    1
     4    44    43   ar
     5    44    45   ar
     6     3    37    1
     7    14    50    1
     8    38    37   ar
     9    38    39   ar
    10     5    39    1
    11    10    45    1
    12    43    42   ar
    13    15    51    1
    14    50    51   ar
    15    50    49   ar
    16    37    36   ar
    17    13    49    1
    18    39    40   ar
    19    45    46   ar
    20    51    52   ar
    21    49    48   ar
    22    52    16    1
    23    52    53   ar
    24    57    54    1
    25    36    41   ar
    26    36    18    1
    27    48    53   ar
    28    48    18    1
    29    40    41   ar
    30    40     6    1
    31    42    18    1
    32    42    47   ar
    33    53    17    1
    34    56    54    1
    35    41     7    1
    36    46    47   ar
    37    46    11    1
    38    18    33    1
    39    54    55    1
    40    54     1    1
    41    47    12    1
    42    60    58    1
    43    59    58    1
    44    71    68    1
    45    32    29    1
    46    33    35    1
    47    33    34    1
    48    33     2    1
    49    65    64    1
    50    58     1    1
    51    58    61    1
    52     1    72    1
    53     1    74    1
    54    31    29    1
    55    29     2    1
    56    29    30    1
    57    68    69    1
    58    68    70    1
    59    68    62    1
    60    72     2    1
    61     2    73    1
    62    64    66    1
    63    64    67    1
    64    64    62    1
    65    74    62    1
    66    62    63    1
    67    22    21    1
    68    28    25    1
    69    73    19    1
    70    24    21    1
    71    21    19    1
    72    21    23    1
    73    25    19    1
    74    25    26    1
    75    25    27    1
    76    19    20    1
