@<TRIPOS>MOLECULE
1,2,3
 54 56 0 0 0
SMALL
GASTEIGER

@<TRIPOS>ATOM
      1 O           5.2168   13.7415   22.4940 O.3     1  UNL1       -0.4945
      2 O           8.9691   12.1934   20.9342 O.3     1  UNL1       -0.1940
      3 N           7.3176   13.6007   20.5409 N.pl3   1  UNL1       -0.2050
      4 C           5.8927   15.5652   20.3489 C.ar    1  UNL1        0.0114
      5 C           6.6071   14.5081   19.7533 C.ar    1  UNL1        0.0596
      6 C           6.5136   14.3264   18.3730 C.ar    1  UNL1       -0.0384
      7 H           7.0815   13.5351   17.9116 H       1  UNL1        0.0637
      8 C           5.6890   15.1250   17.6078 C.ar    1  UNL1       -0.0597
      9 H           5.6296   14.9693   16.5406 H       1  UNL1        0.0618
     10 C           4.9189   16.1008   18.2111 C.ar    1  UNL1       -0.0581
     11 H           4.2375   16.6976   17.6223 H       1  UNL1        0.0620
     12 C           5.0149   16.3307   19.5776 C.ar    1  UNL1       -0.0408
     13 C           4.1243   17.3747   20.1900 C.3     1  UNL1       -0.0391
     14 H           3.0874   17.1721   19.9221 H       1  UNL1        0.0278
     15 H           4.3733   18.3629   19.8051 H       1  UNL1        0.0278
     16 H           4.2058   17.3896   21.2732 H       1  UNL1        0.0278
     17 C           6.1144   15.8903   21.7788 C.ar    1  UNL1        0.0288
     18 C           5.7745   14.9857   22.7899 C.ar    1  UNL1        0.1281
     19 C           5.9863   15.2922   24.1263 C.ar    1  UNL1       -0.0193
     20 H           5.7226   14.5590   24.8699 H       1  UNL1        0.0654
     21 C           6.5547   16.5045   24.4713 C.ar    1  UNL1       -0.0580
     22 H           6.7166   16.7517   25.5096 H       1  UNL1        0.0619
     23 C           6.9170   17.3973   23.4814 C.ar    1  UNL1       -0.0580
     24 H           7.3738   18.3397   23.7471 H       1  UNL1        0.0620
     25 C           6.7120   17.1062   22.1386 C.ar    1  UNL1       -0.0392
     26 C           7.1516   18.1110   21.1138 C.3     1  UNL1       -0.0390
     27 H           8.1047   18.5464   21.4070 H       1  UNL1        0.0278
     28 H           6.4266   18.9218   21.0471 H       1  UNL1        0.0278
     29 H           7.2542   17.6611   20.1305 H       1  UNL1        0.0278
     30 C           3.8649   13.8430   22.0560 C.3     1  UNL1        0.0788
     31 H           3.7889   14.4303   21.1366 H       1  UNL1        0.0660
     32 H           3.2464   14.3065   22.8339 H       1  UNL1        0.0660
     33 H           3.5266   12.8283   21.8614 H       1  UNL1        0.0660
     34 C           8.5236   13.1703   20.2534 C.3     1  UNL1        0.2664
     35 C           9.4025   13.7945   19.2166 C.ar    1  UNL1        0.0177
     36 C           9.7167   13.0920   18.0531 C.ar    1  UNL1       -0.0421
     37 C          10.5093   13.7006   17.0881 C.ar    1  UNL1       -0.0555
     38 H          10.7372   13.1563   16.1821 H       1  UNL1        0.0623
     39 C          11.0130   14.9780   17.2643 C.ar    1  UNL1       -0.0499
     40 C          10.7333   15.6389   18.4529 C.ar    1  UNL1       -0.0555
     41 H          11.1478   16.6236   18.6191 H       1  UNL1        0.0623
     42 C           9.9435   15.0648   19.4359 C.ar    1  UNL1       -0.0421
     43 C           9.2065   11.7028   17.8089 C.3     1  UNL1       -0.0393
     44 H           8.8246   11.2565   18.7233 H       1  UNL1        0.0278
     45 H          10.0057   11.0711   17.4248 H       1  UNL1        0.0278
     46 H           8.4099   11.7125   17.0630 H       1  UNL1        0.0278
     47 C          11.8722   15.6264   16.2211 C.3     1  UNL1       -0.0397
     48 H          12.9119   15.6411   16.5485 H       1  UNL1        0.0278
     49 H          11.5612   16.6560   16.0542 H       1  UNL1        0.0278
     50 H          11.8178   15.0852   15.2800 H       1  UNL1        0.0278
     51 C           9.7456   15.7712   20.7415 C.3     1  UNL1       -0.0393
     52 H           8.7267   15.6679   21.1019 H       1  UNL1        0.0278
     53 H           9.9879   16.8270   20.6484 H       1  UNL1        0.0278
     54 H          10.4030   15.3332   21.4931 H       1  UNL1        0.0278
@<TRIPOS>BOND
     1    50    47    1
     2    49    47    1
     3    38    37    1
     4    47    48    1
     5    47    39    1
     6     9     8    1
     7    46    43    1
     8    37    39   ar
     9    37    36   ar
    10    39    40   ar
    11    45    43    1
    12     8    10   ar
    13     8     6   ar
    14    11    10    1
    15    43    36    1
    16    43    44    1
    17     7     6    1
    18    36    35   ar
    19    10    12   ar
    20     6     5   ar
    21    40    41    1
    22    40    42   ar
    23    35    42   ar
    24    35    34    1
    25    42    51    1
    26    12    13    1
    27    12     4   ar
    28     5     4   ar
    29     5     3    1
    30    15    13    1
    31    14    13    1
    32    29    26    1
    33    13    16    1
    34    34     3    1
    35    34     2    1
    36     4    17    1
    37    53    51    1
    38    51    52    1
    39    51    54    1
    40    28    26    1
    41    26    27    1
    42    26    25    1
    43    31    30    1
    44    17    25   ar
    45    17    18   ar
    46    33    30    1
    47    30     1    1
    48    30    32    1
    49    25    23   ar
    50     1    18    1
    51    18    19   ar
    52    23    24    1
    53    23    21   ar
    54    19    21   ar
    55    19    20    1
    56    21    22    1
