@<TRIPOS>MOLECULE
3,4,5
 41 42 0 0 0
SMALL
GASTEIGER

@<TRIPOS>ATOM
      1 SI          4.1612   14.1342    2.9430 Si      1  UNL1        0.0000
      2 SI          2.3375   12.5350    4.6621 Si      1  UNL1        0.0000
      3 O           3.0648   16.7378    2.6749 O.2     1  UNL1        0.0000
      4 O           0.4338   14.2660    5.8456 O.2     1  UNL1        0.0000
      5 N           2.7929   14.0326    3.9676 N.3     1  UNL1        0.0000
      6 C           2.3138   19.0571    2.3782 C.3     1  UNL1        0.0000
      7 H           2.8105   20.0087    2.2089 H       1  UNL1        0.0000
      8 H           2.0036   18.9888    3.4218 H       1  UNL1        0.0000
      9 H           1.4227   19.0199    1.7501 H       1  UNL1        0.0000
     10 C           3.2400   17.9389    2.0537 C.ar    1  UNL1        0.0000
     11 C           4.2986   17.8683    1.2023 C.ar    1  UNL1        0.0000
     12 H           4.6741   18.6560    0.5806 H       1  UNL1        0.0000
     13 C           4.8075   16.5511    1.3092 C.ar    1  UNL1        0.0000
     14 H           5.6462   16.1468    0.7805 H       1  UNL1        0.0000
     15 C           4.0370   15.8879    2.2147 C.ar    1  UNL1        0.0000
     16 C           4.2342   12.9162    1.4751 C.3     1  UNL1        0.0000
     17 H           3.3079   12.8886    0.9122 H       1  UNL1        0.0000
     18 H           4.4304   11.9114    1.8340 H       1  UNL1        0.0000
     19 H           5.0306   13.1804    0.7871 H       1  UNL1        0.0000
     20 C           5.8693   14.0198    3.7963 C.3     1  UNL1        0.0000
     21 H           5.9439   14.6712    4.6601 H       1  UNL1        0.0000
     22 H           6.6642   14.2903    3.1082 H       1  UNL1        0.0000
     23 H           6.0574   13.0063    4.1340 H       1  UNL1        0.0000
     24 C           3.6830   11.5737    5.6125 C.3     1  UNL1        0.0000
     25 H           4.2009   12.1929    6.3363 H       1  UNL1        0.0000
     26 H           4.4236   11.1869    4.9208 H       1  UNL1        0.0000
     27 H           3.2582   10.7289    6.1444 H       1  UNL1        0.0000
     28 C           1.5350   11.2757    3.4649 C.3     1  UNL1        0.0000
     29 H           2.2860   10.8351    2.8180 H       1  UNL1        0.0000
     30 H           0.7848   11.7342    2.8295 H       1  UNL1        0.0000
     31 H           1.0572   10.4688    4.0121 H       1  UNL1        0.0000
     32 C           0.9907   13.0151    5.9165 C.ar    1  UNL1        0.0000
     33 C           0.3488   12.3031    6.8828 C.ar    1  UNL1        0.0000
     34 H           0.5644   11.2941    7.1692 H       1  UNL1        0.0000
     35 C          -0.6505   13.1413    7.4352 C.ar    1  UNL1        0.0000
     36 H          -1.3388   12.8933    8.2180 H       1  UNL1        0.0000
     37 C          -0.5670   14.3248    6.7701 C.ar    1  UNL1        0.0000
     38 C          -1.3838   15.5641    6.8654 C.3     1  UNL1        0.0000
     39 H          -1.9601   15.5542    7.7862 H       1  UNL1        0.0000
     40 H          -2.0724   15.6270    6.0219 H       1  UNL1        0.0000
     41 H          -0.7446   16.4472    6.8468 H       1  UNL1        0.0000
@<TRIPOS>BOND
     1    12    11    1
     2    14    13    1
     3    19    16    1
     4    17    16    1
     5    11    13   ar
     6    11    10   ar
     7    13    15   ar
     8    16    18    1
     9    16     1    1
    10     9     6    1
    11    10     6    1
    12    10     3   ar
    13     7     6    1
    14    15     3   ar
    15    15     1    1
    16     6     8    1
    17    29    28    1
    18    30    28    1
    19     1    20    1
    20     1     5    1
    21    22    20    1
    22    28    31    1
    23    28     2    1
    24    20    23    1
    25    20    21    1
    26     5     2    1
    27     2    24    1
    28     2    32    1
    29    26    24    1
    30    24    27    1
    31    24    25    1
    32     4    32   ar
    33     4    37   ar
    34    32    33   ar
    35    40    38    1
    36    37    38    1
    37    37    35   ar
    38    41    38    1
    39    38    39    1
    40    33    34    1
    41    33    35   ar
    42    35    36    1
