@<TRIPOS>MOLECULE
3,4,5
 41 42 0 0 0
SMALL
GASTEIGER

@<TRIPOS>ATOM
      1 SI          8.0238    2.1547    5.4054 Si      1  UNL1        0.0000
      2 SI          8.0501    1.8583    2.3872 Si      1  UNL1        0.0000
      3 O          10.7138    1.9791    6.2135 O.2     1  UNL1        0.0000
      4 O          10.3162    3.1955    1.2955 O.2     1  UNL1        0.0000
      5 N           8.8277    2.1532    3.8906 N.3     1  UNL1        0.0000
      6 C          13.0199    1.6670    6.9718 C.3     1  UNL1        0.0000
      7 H          13.4919    0.7073    7.1770 H       1  UNL1        0.0000
      8 H          13.4755    2.4157    7.6202 H       1  UNL1        0.0000
      9 H          13.2118    1.9408    5.9337 H       1  UNL1        0.0000
     10 C          11.5521    1.5840    7.2058 C.ar    1  UNL1        0.0000
     11 C          10.8238    1.1667    8.2793 C.ar    1  UNL1        0.0000
     12 H          11.2090    0.7976    9.2087 H       1  UNL1        0.0000
     13 C           9.4625    1.3101    7.9169 C.ar    1  UNL1        0.0000
     14 H           8.6130    1.0716    8.5241 H       1  UNL1        0.0000
     15 C           9.4285    1.8071    6.6475 C.ar    1  UNL1        0.0000
     16 C           7.1737    3.7905    5.9459 C.3     1  UNL1        0.0000
     17 H           7.8349    4.6506    5.9131 H       1  UNL1        0.0000
     18 H           6.7897    3.7097    6.9584 H       1  UNL1        0.0000
     19 H           6.3322    4.0037    5.2949 H       1  UNL1        0.0000
     20 C           6.6833    0.8221    5.6788 C.3     1  UNL1        0.0000
     21 H           7.0197   -0.1773    5.4310 H       1  UNL1        0.0000
     22 H           5.8185    1.0375    5.0619 H       1  UNL1        0.0000
     23 H           6.3520    0.8115    6.7114 H       1  UNL1        0.0000
     24 C           7.9267   -0.0042    1.9524 C.3     1  UNL1        0.0000
     25 H           8.8971   -0.4905    1.9843 H       1  UNL1        0.0000
     26 H           7.5239   -0.1427    0.9545 H       1  UNL1        0.0000
     27 H           7.2730   -0.5217    2.6462 H       1  UNL1        0.0000
     28 C           6.3060    2.6173    2.2111 C.3     1  UNL1        0.0000
     29 H           5.6100    2.1376    2.8897 H       1  UNL1        0.0000
     30 H           5.9218    2.4957    1.2042 H       1  UNL1        0.0000
     31 H           6.3068    3.6782    2.4385 H       1  UNL1        0.0000
     32 C           9.0966    2.6458    1.0086 C.ar    1  UNL1        0.0000
     33 C           8.8506    2.8039   -0.3235 C.ar    1  UNL1        0.0000
     34 H           7.9762    2.4737   -0.8468 H       1  UNL1        0.0000
     35 C           9.9597    3.4832   -0.8806 C.ar    1  UNL1        0.0000
     36 H          10.0916    3.7715   -1.9040 H       1  UNL1        0.0000
     37 C          10.8279    3.7067    0.1445 C.ar    1  UNL1        0.0000
     38 C          12.1471    4.3905    0.1950 C.3     1  UNL1        0.0000
     39 H          12.6650    4.1181    1.1142 H       1  UNL1        0.0000
     40 H          12.0135    5.4720    0.1768 H       1  UNL1        0.0000
     41 H          12.7539    4.1113   -0.6639 H       1  UNL1        0.0000
@<TRIPOS>BOND
     1    36    35    1
     2    35    33   ar
     3    35    37   ar
     4    34    33    1
     5    41    38    1
     6    33    32   ar
     7    37    38    1
     8    37     4   ar
     9    40    38    1
    10    38    39    1
    11    26    24    1
    12    32     4   ar
    13    32     2    1
    14    30    28    1
    15    24    25    1
    16    24     2    1
    17    24    27    1
    18    28     2    1
    19    28    31    1
    20    28    29    1
    21     2     5    1
    22     5     1    1
    23    22    20    1
    24    19    16    1
    25     1    20    1
    26     1    16    1
    27     1    15    1
    28    21    20    1
    29    20    23    1
    30    17    16    1
    31     9     6    1
    32    16    18    1
    33     3    15   ar
    34     3    10   ar
    35    15    13   ar
    36     6     7    1
    37     6    10    1
    38     6     8    1
    39    10    11   ar
    40    13    11   ar
    41    13    14    1
    42    11    12    1
