@<TRIPOS>MOLECULE
3,6,46
 85 89 0 0 0
SMALL
GASTEIGER

@<TRIPOS>ATOM
      1 SI         15.0577    6.3282    1.3254 Si      1  UNL1        0.0000
      2 SI         18.8878    1.6292    5.9131 Si      1  UNL1        0.0000
      3 N          17.9350    6.9881    5.8977 N.pl3   1  UNL1        0.0000
      4 C          17.7284    8.8339    7.9476 C.2     1  UNL1        0.0000
      5 H          17.5928    9.5275    8.7652 H       1  UNL1        0.0000
      6 O          15.7056    6.5298    4.1505 O.3     1  UNL1        0.0000
      7 C          16.2453    7.5718    3.5579 C.ar    1  UNL1        0.0000
      8 C          17.0169    8.4943    4.2707 C.ar    1  UNL1        0.0000
      9 C          17.4821    9.6763    3.6241 C.ar    1  UNL1        0.0000
     10 C          17.1067    9.9057    2.2731 C.ar    1  UNL1        0.0000
     11 C          16.3581    8.9264    1.5823 C.ar    1  UNL1        0.0000
     12 H          16.1289    9.1007    0.5417 H       1  UNL1        0.0000
     13 C          15.9443    7.7741    2.1839 C.ar    1  UNL1        0.0000
     14 C          18.3442   10.6107    4.2353 C.ar    1  UNL1        0.0000
     15 H          18.7117   10.4226    5.2329 H       1  UNL1        0.0000
     16 C          18.7472   11.7411    3.5764 C.ar    1  UNL1        0.0000
     17 H          19.4062   12.4430    4.0666 H       1  UNL1        0.0000
     18 C          18.3234   11.9942    2.2662 C.ar    1  UNL1        0.0000
     19 H          18.6435   12.8947    1.7640 H       1  UNL1        0.0000
     20 C          17.5306   11.0822    1.6259 C.ar    1  UNL1        0.0000
     21 H          17.2230   11.2424    0.6025 H       1  UNL1        0.0000
     22 C          17.3882    8.1956    5.6589 C.3     1  UNL1        0.0000
     23 C          17.2455    9.1371    6.6851 C.2     1  UNL1        0.0000
     24 H          16.7502   10.0742    6.4863 H       1  UNL1        0.0000
     25 C          15.8151    4.6212    1.7059 C.3     1  UNL1        0.0000
     26 H          15.3345    3.8453    1.1155 H       1  UNL1        0.0000
     27 H          15.7162    4.3521    2.7603 H       1  UNL1        0.0000
     28 H          16.8746    4.6141    1.4583 H       1  UNL1        0.0000
     29 C          15.3424    6.5970   -0.5476 C.3     1  UNL1        0.0000
     30 H          16.4014    6.6148   -0.7826 H       1  UNL1        0.0000
     31 H          14.9100    7.5250   -0.9034 H       1  UNL1        0.0000
     32 H          14.8965    5.7915   -1.1200 H       1  UNL1        0.0000
     33 C          13.1471    6.3781    1.6709 C.3     1  UNL1        0.0000
     34 C          12.5341    7.6392    1.0545 C.3     1  UNL1        0.0000
     35 H          11.4727    7.6999    1.2942 H       1  UNL1        0.0000
     36 H          12.6356    7.6277   -0.0272 H       1  UNL1        0.0000
     37 H          13.0218    8.5342    1.4360 H       1  UNL1        0.0000
     38 C          12.8477    6.3777    3.1704 C.3     1  UNL1        0.0000
     39 H          13.2483    7.2754    3.6364 H       1  UNL1        0.0000
     40 H          13.2928    5.5091    3.6521 H       1  UNL1        0.0000
     41 H          11.7711    6.3545    3.3422 H       1  UNL1        0.0000
     42 C          12.4792    5.1510    1.0472 C.3     1  UNL1        0.0000
     43 H          11.3986    5.2019    1.1783 H       1  UNL1        0.0000
     44 H          12.8341    4.2400    1.5214 H       1  UNL1        0.0000
     45 H          12.6884    5.0935   -0.0180 H       1  UNL1        0.0000
     46 O          17.6148    4.1857    6.3822 O.3     1  UNL1        0.0000
     47 C          18.8755    4.3250    6.7235 C.ar    1  UNL1        0.0000
     48 C          19.6846    3.1566    6.7166 C.ar    1  UNL1        0.0000
     49 C          20.9510    3.2278    7.2177 C.ar    1  UNL1        0.0000
     50 H          21.5728    2.3452    7.2330 H       1  UNL1        0.0000
     51 C          21.4974    4.4375    7.7029 C.ar    1  UNL1        0.0000
     52 C          20.7272    5.6295    7.6367 C.ar    1  UNL1        0.0000
     53 C          19.3840    5.5514    7.1632 C.ar    1  UNL1        0.0000
     54 C          22.8130    4.4878    8.2019 C.ar    1  UNL1        0.0000
     55 H          23.3745    3.5663    8.2581 H       1  UNL1        0.0000
     56 C          23.3756    5.6717    8.5920 C.ar    1  UNL1        0.0000
     57 H          24.3845    5.7028    8.9753 H       1  UNL1        0.0000
     58 C          22.6445    6.8585    8.4625 C.ar    1  UNL1        0.0000
     59 H          23.1058    7.7985    8.7288 H       1  UNL1        0.0000
     60 C          21.3588    6.8398    7.9920 C.ar    1  UNL1        0.0000
     61 H          20.8294    7.7727    7.8693 H       1  UNL1        0.0000
     62 C          18.5455    6.7516    7.0748 C.2     1  UNL1        0.0000
     63 C          18.4273    7.6539    8.1396 C.2     1  UNL1        0.0000
     64 H          18.8665    7.4140    9.0950 H       1  UNL1        0.0000
     65 C          20.3492    0.4880    5.4405 C.3     1  UNL1        0.0000
     66 H          19.9921   -0.3937    4.9205 H       1  UNL1        0.0000
     67 H          20.9062    0.1496    6.3066 H       1  UNL1        0.0000
     68 H          21.0436    0.9960    4.7797 H       1  UNL1        0.0000
     69 C          17.9740    1.9937    4.2814 C.3     1  UNL1        0.0000
     70 H          18.5896    2.6124    3.6313 H       1  UNL1        0.0000
     71 H          17.0268    2.5110    4.4454 H       1  UNL1        0.0000
     72 H          17.7611    1.0713    3.7467 H       1  UNL1        0.0000
     73 C          17.7564    0.6960    7.1844 C.3     1  UNL1        0.0000
     74 C          16.6548    1.6094    7.7235 C.3     1  UNL1        0.0000
     75 H          16.0538    2.0135    6.9114 H       1  UNL1        0.0000
     76 H          17.0899    2.4385    8.2773 H       1  UNL1        0.0000
     77 H          15.9984    1.0561    8.3958 H       1  UNL1        0.0000
     78 C          18.5902    0.1933    8.3665 C.3     1  UNL1        0.0000
     79 H          19.1147    1.0158    8.8490 H       1  UNL1        0.0000
     80 H          19.3253   -0.5361    8.0374 H       1  UNL1        0.0000
     81 H          17.9482   -0.2837    9.1068 H       1  UNL1        0.0000
     82 C          17.0992   -0.5036    6.4996 C.3     1  UNL1        0.0000
     83 H          16.4970   -1.0641    7.2142 H       1  UNL1        0.0000
     84 H          17.8497   -1.1747    6.0896 H       1  UNL1        0.0000
     85 H          16.4491   -0.1754    5.6933 H       1  UNL1        0.0000
@<TRIPOS>BOND
     1    32    29    1
     2    31    29    1
     3    30    29    1
     4    29     1    1
     5    36    34    1
     6    45    42    1
     7    12    11    1
     8    21    20    1
     9    42    43    1
    10    42    44    1
    11    42    33    1
    12    34    35    1
    13    34    37    1
    14    34    33    1
    15    26    25    1
    16     1    33    1
    17     1    25    1
    18     1    13    1
    19    28    25    1
    20    11    13   ar
    21    11    10   ar
    22    20    18   ar
    23    20    10   ar
    24    33    38    1
    25    25    27    1
    26    19    18    1
    27    13     7   ar
    28    18    16   ar
    29    10     9   ar
    30    38    41    1
    31    38    39    1
    32    38    40    1
    33     7     6    1
    34     7     8   ar
    35    16    17    1
    36    16    14   ar
    37     9    14   ar
    38     9     8   ar
    39    70    69    1
    40    72    69    1
    41    14    15    1
    42     8    22    1
    43    69    71    1
    44    69     2    1
    45    68    65    1
    46    66    65    1
    47    65     2    1
    48    65    67    1
    49    22     3    1
    50    22    23    1
    51    85    82    1
    52     3    62    1
    53     2    48    1
    54     2    73    1
    55    84    82    1
    56    46    47    1
    57    24    23    1
    58    82    73    1
    59    82    83    1
    60    23     4    2
    61    48    47   ar
    62    48    49   ar
    63    47    53   ar
    64    75    74    1
    65    62    53    1
    66    62    63    2
    67    53    52   ar
    68    73    74    1
    69    73    78    1
    70    49    50    1
    71    49    51   ar
    72    52    51   ar
    73    52    60   ar
    74    51    54   ar
    75    74    76    1
    76    74    77    1
    77    61    60    1
    78     4    63    1
    79     4     5    1
    80    60    58   ar
    81    80    78    1
    82    63    64    1
    83    54    55    1
    84    54    56   ar
    85    78    79    1
    86    78    81    1
    87    58    56   ar
    88    58    59    1
    89    56    57    1
