@<TRIPOS>MOLECULE
3,4,5
 49 50 0 0 0
SMALL
GASTEIGER

@<TRIPOS>ATOM
      1 SI         -0.2752    7.3587   12.0597 Si      1  UNL1        0.0000
      2 SI          0.9258    4.7341   13.1658 Si      1  UNL1        0.0000
      3 O          -0.7923    5.2845    9.8888 O.3     1  UNL1        0.0000
      4 O          -0.8833    2.8387   11.8140 O.3     1  UNL1        0.0000
      5 N          -0.3209    5.7225   12.5600 N.3     1  UNL1        0.0000
      6 C          -0.4213    4.5268    8.7403 C.3     1  UNL1        0.0000
      7 H          -0.1347    5.1929    7.9204 H       1  UNL1        0.0000
      8 H          -1.2397    3.8734    8.4161 H       1  UNL1        0.0000
      9 H           0.4454    3.9291    9.0304 H       1  UNL1        0.0000
     10 C          -1.5415    6.4431    9.6157 C.ar    1  UNL1        0.0000
     11 C          -2.4191    6.5152    8.5406 C.ar    1  UNL1        0.0000
     12 H          -2.5880    5.6600    7.9033 H       1  UNL1        0.0000
     13 C          -3.1135    7.6919    8.3076 C.ar    1  UNL1        0.0000
     14 H          -3.8078    7.7424    7.4828 H       1  UNL1        0.0000
     15 C          -2.9186    8.7865    9.1299 C.ar    1  UNL1        0.0000
     16 H          -3.4548    9.7048    8.9450 H       1  UNL1        0.0000
     17 C          -2.0541    8.6911   10.2063 C.ar    1  UNL1        0.0000
     18 H          -1.9246    9.5384   10.8614 H       1  UNL1        0.0000
     19 C          -1.3557    7.5226   10.4821 C.ar    1  UNL1        0.0000
     20 C          -1.0358    8.4803   13.4130 C.3     1  UNL1        0.0000
     21 H          -2.0967    8.2738   13.5305 H       1  UNL1        0.0000
     22 H          -0.9205    9.5345   13.1840 H       1  UNL1        0.0000
     23 H          -0.5508    8.2992   14.3672 H       1  UNL1        0.0000
     24 C           1.4505    8.0287   11.5720 C.3     1  UNL1        0.0000
     25 H           2.0815    8.0963   12.4496 H       1  UNL1        0.0000
     26 H           1.3838    9.0192   11.1355 H       1  UNL1        0.0000
     27 H           1.9482    7.3824   10.8570 H       1  UNL1        0.0000
     28 C           2.0077    5.5698   14.4977 C.3     1  UNL1        0.0000
     29 H           2.5718    6.3815   14.0547 H       1  UNL1        0.0000
     30 H           2.7192    4.8778   14.9344 H       1  UNL1        0.0000
     31 H           1.4085    5.9897   15.2981 H       1  UNL1        0.0000
     32 C           2.1297    4.0438   11.8301 C.3     1  UNL1        0.0000
     33 H           1.6083    3.4872   11.0564 H       1  UNL1        0.0000
     34 H           2.8692    3.3813   12.2694 H       1  UNL1        0.0000
     35 H           2.6652    4.8558   11.3494 H       1  UNL1        0.0000
     36 C           0.0550    3.2354   13.9592 C.ar    1  UNL1        0.0000
     37 C           0.1878    2.8815   15.2937 C.ar    1  UNL1        0.0000
     38 H           0.8346    3.4701   15.9254 H       1  UNL1        0.0000
     39 C          -0.4770    1.7889   15.8247 C.ar    1  UNL1        0.0000
     40 H          -0.3570    1.5324   16.8666 H       1  UNL1        0.0000
     41 C          -1.2945    1.0246   15.0115 C.ar    1  UNL1        0.0000
     42 H          -1.8176    0.1696   15.4131 H       1  UNL1        0.0000
     43 C          -1.4467    1.3496   13.6738 C.ar    1  UNL1        0.0000
     44 H          -2.1015    0.7552   13.0551 H       1  UNL1        0.0000
     45 C          -0.7897    2.4628   13.1637 C.ar    1  UNL1        0.0000
     46 C          -1.0824    1.7431   10.9175 C.3     1  UNL1        0.0000
     47 H          -0.4404    0.9036   11.2048 H       1  UNL1        0.0000
     48 H          -0.8091    2.0877    9.9204 H       1  UNL1        0.0000
     49 H          -2.1296    1.4271   10.8922 H       1  UNL1        0.0000
@<TRIPOS>BOND
     1    14    13    1
     2    12    11    1
     3     7     6    1
     4    13    11   ar
     5    13    15   ar
     6     8     6    1
     7    11    10   ar
     8     6     9    1
     9     6     3    1
    10    16    15    1
    11    15    17   ar
    12    10     3    1
    13    10    19   ar
    14    48    46    1
    15    17    19   ar
    16    17    18    1
    17    19     1    1
    18    27    24    1
    19    49    46    1
    20    46    47    1
    21    46     4    1
    22    33    32    1
    23    26    24    1
    24    35    32    1
    25    24     1    1
    26    24    25    1
    27     4    45    1
    28    32    34    1
    29    32     2    1
    30     1     5    1
    31     1    20    1
    32     5     2    1
    33    44    43    1
    34    45    43   ar
    35    45    36   ar
    36     2    36    1
    37     2    28    1
    38    22    20    1
    39    20    21    1
    40    20    23    1
    41    43    41   ar
    42    36    37   ar
    43    29    28    1
    44    28    30    1
    45    28    31    1
    46    41    42    1
    47    41    39   ar
    48    37    39   ar
    49    37    38    1
    50    39    40    1
