@<TRIPOS>MOLECULE
1,2,3
 26 27 0 0 0
SMALL
GASTEIGER

@<TRIPOS>ATOM
      1 O           0.9943   -0.0372   10.6532 O.3     1  UNL1       -0.2213
      2 O           0.9706    1.0190    8.3886 O.3     1  UNL1       -0.2215
      3 N           2.7078   -0.8522    8.6543 N.pl3   1  UNL1       -0.2425
      4 C           0.4330   -0.2356    8.3804 C.3     1  UNL1        0.1672
      5 N          -1.3685   -2.4604    9.3928 N.ar    1  UNL1       -0.2571
      6 C           3.7344   -1.7127    8.5927 C.3     1  UNL1        0.0844
      7 H           4.6661   -1.3719    9.0235 H       1  UNL1        0.0584
      8 C          -0.3527   -1.9578   10.0855 C.ar    1  UNL1        0.0761
      9 C           3.6243   -2.9697    8.0339 C.2     1  UNL1       -0.0600
     10 H           4.4794   -3.6258    8.0115 H       1  UNL1        0.0592
     11 C          -0.0410   -0.4966    9.8739 C.3     1  UNL1        0.1696
     12 C           1.5249   -1.2475    8.1478 C.2     1  UNL1        0.0608
     13 C           1.3350   -2.4942    7.5627 C.2     1  UNL1       -0.0407
     14 H           0.3642   -2.7557    7.1720 H       1  UNL1        0.0634
     15 C           2.4021   -3.3710    7.5015 C.2     1  UNL1       -0.0623
     16 H           2.2881   -4.3454    7.0517 H       1  UNL1        0.0616
     17 C           0.4307   -2.7301   10.9382 C.ar    1  UNL1       -0.0376
     18 H           1.2340   -2.2542   11.4812 H       1  UNL1        0.0636
     19 C          -1.6410   -3.7471    9.5280 C.ar    1  UNL1        0.0280
     20 H          -2.4814   -4.1032    8.9465 H       1  UNL1        0.0829
     21 C          -0.9203   -4.6022   10.3464 C.ar    1  UNL1       -0.0436
     22 H          -1.1843   -5.6455   10.4203 H       1  UNL1        0.0633
     23 C           0.1401   -4.0757   11.0689 C.ar    1  UNL1       -0.0585
     24 H           0.7269   -4.7024   11.7248 H       1  UNL1        0.0619
     25 H          -0.9619    0.1025   10.0245 H       1  UNL1        0.0725
     26 H          -0.4045   -0.3531    7.6704 H       1  UNL1        0.0723
@<TRIPOS>BOND
     1    16    15    1
     2    14    13    1
     3    15    13    1
     4    15     9    2
     5    13    12    2
     6    26     4    1
     7    10     9    1
     8     9     6    1
     9    12     4    1
    10    12     3    1
    11     4     2    1
    12     4    11    1
    13     6     3    1
    14     6     7    1
    15    20    19    1
    16     5    19   ar
    17     5     8   ar
    18    19    21   ar
    19    11    25    1
    20    11     8    1
    21    11     1    1
    22     8    17   ar
    23    21    22    1
    24    21    23   ar
    25    17    23   ar
    26    17    18    1
    27    23    24    1
