@<TRIPOS>MOLECULE
1,2,3
 35 35 0 0 0
SMALL
GASTEIGER

@<TRIPOS>ATOM
      1 O          -8.6584    1.3390    4.2354 O.3     1  UNL1       -0.2281
      2 O         -10.8688    4.1916    4.7361 O.3     1  UNL1       -0.2278
      3 N          -8.1254    4.1505    4.4690 N.pl3   1  UNL1       -0.2416
      4 C          -6.8711    3.6434    4.5523 C.3     1  UNL1        0.1008
      5 C          -5.7557    4.3384    4.1028 C.2     1  UNL1       -0.0566
      6 C          -5.8937    5.6327    3.6344 C.2     1  UNL1       -0.0621
      7 C          -7.1624    6.1890    3.6456 C.2     1  UNL1       -0.0433
      8 C          -8.2523    5.4289    4.0469 C.2     1  UNL1        0.0291
      9 C          -9.6120    6.0660    3.9334 C.3     1  UNL1        0.0186
     10 C         -10.6910    5.5589    4.9233 C.3     1  UNL1        0.1041
     11 C         -10.2525    5.8723    6.3678 C.3     1  UNL1       -0.0327
     12 C         -12.0153    6.2911    4.6276 C.3     1  UNL1       -0.0327
     13 C          -6.6764    2.3036    5.1959 C.3     1  UNL1        0.0079
     14 C          -7.2989    1.1156    4.3935 C.3     1  UNL1        0.1013
     15 C          -6.6021    1.0009    3.0235 C.3     1  UNL1       -0.0330
     16 C          -7.0820   -0.1881    5.1876 C.3     1  UNL1       -0.0330
     17 H          -4.7837    3.8723    4.1461 H       1  UNL1        0.0595
     18 H          -5.0405    6.1971    3.2922 H       1  UNL1        0.0616
     19 H          -7.3135    7.2089    3.3281 H       1  UNL1        0.0633
     20 H          -9.9915    5.8689    2.9246 H       1  UNL1        0.0355
     21 H          -9.5009    7.1474    4.0410 H       1  UNL1        0.0355
     22 H         -10.1871    6.9481    6.5148 H       1  UNL1        0.0258
     23 H          -9.2799    5.4273    6.5711 H       1  UNL1        0.0258
     24 H         -10.9826    5.4651    7.0637 H       1  UNL1        0.0258
     25 H         -11.9039    7.3667    4.7393 H       1  UNL1        0.0258
     26 H         -12.7795    5.9391    5.3164 H       1  UNL1        0.0258
     27 H         -12.3398    6.0670    3.6138 H       1  UNL1        0.0258
     28 H          -7.1548    2.3192    6.1790 H       1  UNL1        0.0319
     29 H          -5.6089    2.1194    5.3265 H       1  UNL1        0.0319
     30 H          -5.5620    0.7087    3.1463 H       1  UNL1        0.0258
     31 H          -6.6446    1.9516    2.4961 H       1  UNL1        0.0258
     32 H          -7.1148    0.2518    2.4245 H       1  UNL1        0.0258
     33 H          -6.0276   -0.3519    5.3946 H       1  UNL1        0.0258
     34 H          -7.4646   -1.0259    4.6096 H       1  UNL1        0.0258
     35 H          -7.6326   -0.1425    6.1250 H       1  UNL1        0.0258
@<TRIPOS>BOND
     1    32    15    1
     2    31    15    1
     3    20     9    1
     4    15    30    1
     5    15    14    1
     6    18     6    1
     7    19     7    1
     8    27    12    1
     9     6     7    1
    10     6     5    2
    11     7     8    2
    12     9    21    1
    13     9     8    1
    14     9    10    1
    15     8     3    1
    16     5    17    1
    17     5     4    1
    18     1    14    1
    19    14    16    1
    20    14    13    1
    21     3     4    1
    22     4    13    1
    23    34    16    1
    24    12    25    1
    25    12    10    1
    26    12    26    1
    27     2    10    1
    28    10    11    1
    29    16    33    1
    30    16    35    1
    31    13    29    1
    32    13    28    1
    33    11    22    1
    34    11    23    1
    35    11    24    1
