@<TRIPOS>MOLECULE
1,44,45
 85 89 0 0 0
SMALL
GASTEIGER

@<TRIPOS>ATOM
      1 O          11.4788    2.6246   10.0502 O.3     1  UNL1        0.0000
      2 C          12.0379    1.5204   10.4756 C.ar    1  UNL1        0.0000
      3 C          13.4511    1.5153   10.6541 C.ar    1  UNL1        0.0000
      4 SI         14.3958    3.1179   10.2630 Si      1  UNL1        0.0000
      5 C          13.5306    4.8151   10.4805 C.3     1  UNL1        0.0000
      6 H          12.4565    4.7683   10.2806 H       1  UNL1        0.0000
      7 H          13.9694    5.5465    9.8071 H       1  UNL1        0.0000
      8 H          13.6707    5.1918   11.4901 H       1  UNL1        0.0000
      9 C          15.8842    3.1594   11.4688 C.3     1  UNL1        0.0000
     10 H          16.6015    2.3745   11.2569 H       1  UNL1        0.0000
     11 H          15.5666    3.0396   12.5000 H       1  UNL1        0.0000
     12 H          16.4091    4.1056   11.3959 H       1  UNL1        0.0000
     13 C          15.0465    2.9509    8.4421 C.3     1  UNL1        0.0000
     14 C          16.0645    4.0489    8.1302 C.3     1  UNL1        0.0000
     15 H          16.9157    3.9856    8.8029 H       1  UNL1        0.0000
     16 H          15.6224    5.0367    8.2310 H       1  UNL1        0.0000
     17 H          16.4300    3.9470    7.1086 H       1  UNL1        0.0000
     18 C          15.7259    1.5951    8.2367 C.3     1  UNL1        0.0000
     19 H          16.5812    1.4861    8.8991 H       1  UNL1        0.0000
     20 H          16.0805    1.5016    7.2104 H       1  UNL1        0.0000
     21 H          15.0334    0.7799    8.4329 H       1  UNL1        0.0000
     22 C          13.8780    3.0603    7.4618 C.3     1  UNL1        0.0000
     23 H          13.1438    2.2837    7.6642 H       1  UNL1        0.0000
     24 H          14.2251    2.9465    6.4345 H       1  UNL1        0.0000
     25 H          13.3905    4.0285    7.5523 H       1  UNL1        0.0000
     26 C          14.0615    0.3573   11.0462 C.ar    1  UNL1        0.0000
     27 H          15.1322    0.3352   11.1867 H       1  UNL1        0.0000
     28 C          13.3364   -0.8286   11.2940 C.ar    1  UNL1        0.0000
     29 C          13.9895   -2.0027   11.7171 C.ar    1  UNL1        0.0000
     30 H          15.0660   -1.9851   11.8116 H       1  UNL1        0.0000
     31 C          13.2835   -3.1353   12.0129 C.ar    1  UNL1        0.0000
     32 H          13.7907   -4.0323   12.3354 H       1  UNL1        0.0000
     33 C          11.8856   -3.1229   11.9194 C.ar    1  UNL1        0.0000
     34 H          11.3279   -4.0083   12.1882 H       1  UNL1        0.0000
     35 C          11.2229   -2.0014   11.5008 C.ar    1  UNL1        0.0000
     36 H          10.1439   -2.0060   11.4618 H       1  UNL1        0.0000
     37 C          11.9228   -0.8291   11.1420 C.ar    1  UNL1        0.0000
     38 C          11.2830    0.3646   10.7059 C.ar    1  UNL1        0.0000
     39 C           9.8165    0.4229   10.5730 C.3     1  UNL1        0.0000
     40 C           9.1096   -0.5287    9.8385 C.2     1  UNL1        0.0000
     41 H           9.6455   -1.2408    9.2311 H       1  UNL1        0.0000
     42 C           7.7255   -0.5281    9.8929 C.2     1  UNL1        0.0000
     43 H           7.1552   -1.2339    9.3072 H       1  UNL1        0.0000
     44 N           9.1790    1.3748   11.2867 N.pl3   1  UNL1        0.0000
     45 O           8.2986    4.1022   11.5387 O.3     1  UNL1        0.0000
     46 C           7.4843    3.5621   12.4094 C.ar    1  UNL1        0.0000
     47 C           6.8053    4.4524   13.2899 C.ar    1  UNL1        0.0000
     48 SI          7.1962    6.2986   13.0815 Si      1  UNL1        0.0000
     49 C           8.9630    6.8306   12.5571 C.3     1  UNL1        0.0000
     50 H           9.4070    6.1548   11.8200 H       1  UNL1        0.0000
     51 H           9.6195    6.8691   13.4222 H       1  UNL1        0.0000
     52 H           8.9438    7.8311   12.1332 H       1  UNL1        0.0000
     53 C           6.9363    7.0951   14.8044 C.3     1  UNL1        0.0000
     54 H           5.8926    7.0978   15.0975 H       1  UNL1        0.0000
     55 H           7.2759    8.1252   14.8070 H       1  UNL1        0.0000
     56 H           7.4882    6.5666   15.5753 H       1  UNL1        0.0000
     57 C           5.8849    7.0258   11.8482 C.3     1  UNL1        0.0000
     58 C           5.9572    8.5532   11.8181 C.3     1  UNL1        0.0000
     59 H           6.9321    8.8937   11.4789 H       1  UNL1        0.0000
     60 H           5.7753    8.9660   12.8069 H       1  UNL1        0.0000
     61 H           5.2057    8.9543   11.1385 H       1  UNL1        0.0000
     62 C           4.4736    6.6186   12.2793 C.3     1  UNL1        0.0000
     63 H           4.2398    7.0162   13.2637 H       1  UNL1        0.0000
     64 H           4.3759    5.5359   12.3150 H       1  UNL1        0.0000
     65 H           3.7365    7.0052   11.5758 H       1  UNL1        0.0000
     66 C           6.1312    6.4901   10.4378 C.3     1  UNL1        0.0000
     67 H           7.1182    6.7764   10.0818 H       1  UNL1        0.0000
     68 H           5.3891    6.8812    9.7415 H       1  UNL1        0.0000
     69 H           6.0655    5.4046   10.4325 H       1  UNL1        0.0000
     70 C           5.9048    3.9486   14.1814 C.ar    1  UNL1        0.0000
     71 H           5.3748    4.6138   14.8475 H       1  UNL1        0.0000
     72 C           5.6570    2.5617   14.2866 C.ar    1  UNL1        0.0000
     73 C           4.7808    2.0549   15.2648 C.ar    1  UNL1        0.0000
     74 H           4.2718    2.7559   15.9112 H       1  UNL1        0.0000
     75 C           4.5886    0.7089   15.4115 C.ar    1  UNL1        0.0000
     76 H           3.9179    0.3270   16.1669 H       1  UNL1        0.0000
     77 C           5.2904   -0.1819   14.5903 C.ar    1  UNL1        0.0000
     78 H           5.1677   -1.2458   14.7338 H       1  UNL1        0.0000
     79 C           6.1370    0.2819   13.6198 C.ar    1  UNL1        0.0000
     80 H           6.6945   -0.4237   13.0221 H       1  UNL1        0.0000
     81 C           6.3268    1.6643   13.4128 C.ar    1  UNL1        0.0000
     82 C           7.2109    2.1907   12.4275 C.ar    1  UNL1        0.0000
     83 C           7.8429    1.3011   11.4433 C.2     1  UNL1        0.0000
     84 C           7.0862    0.3574   10.7404 C.2     1  UNL1        0.0000
     85 H           6.0132    0.3481   10.8509 H       1  UNL1        0.0000
@<TRIPOS>BOND
     1    24    22    1
     2    17    14    1
     3    20    18    1
     4    22    25    1
     5    22    23    1
     6    22    13    1
     7    14    16    1
     8    14    13    1
     9    14    15    1
    10    18    21    1
    11    18    13    1
    12    18    19    1
    13    13     4    1
    14    41    40    1
    15    43    42    1
    16    68    66    1
    17     7     5    1
    18    40    42    2
    19    40    39    1
    20    42    84    1
    21     1     2    1
    22    67    66    1
    23     4     5    1
    24     4     3    1
    25     4     9    1
    26     6     5    1
    27    69    66    1
    28    66    57    1
    29     2     3   ar
    30     2    38   ar
    31     5     8    1
    32    39    38    1
    33    39    44    1
    34     3    26   ar
    35    38    37   ar
    36    84    85    1
    37    84    83    2
    38    26    27    1
    39    26    28   ar
    40    61    58    1
    41    37    28   ar
    42    37    35   ar
    43    10     9    1
    44    44    83    1
    45    28    29   ar
    46    12     9    1
    47    83    82    1
    48    36    35    1
    49     9    11    1
    50    59    58    1
    51    35    33   ar
    52    45    46    1
    53    65    62    1
    54    29    30    1
    55    29    31   ar
    56    58    57    1
    57    58    60    1
    58    50    49    1
    59    57    62    1
    60    57    48    1
    61    33    31   ar
    62    33    34    1
    63    31    32    1
    64    52    49    1
    65    62    64    1
    66    62    63    1
    67    46    82   ar
    68    46    47   ar
    69    82    81   ar
    70    49    48    1
    71    49    51    1
    72    80    79    1
    73    48    47    1
    74    48    53    1
    75    47    70   ar
    76    81    79   ar
    77    81    72   ar
    78    79    77   ar
    79    70    72   ar
    80    70    71    1
    81    72    73   ar
    82    77    78    1
    83    77    75   ar
    84    53    55    1
    85    53    54    1
    86    53    56    1
    87    73    75   ar
    88    73    74    1
    89    75    76    1
