@<TRIPOS>MOLECULE
1,2,55
 109 119 0 0 0
SMALL
GASTEIGER

@<TRIPOS>ATOM
      1 N          12.6427   16.5593   11.7578 N.pl3   1  UNL1        0.0000
      2 O          12.6090   15.9724    8.8921 O.3     1  UNL1        0.0000
      3 C          12.4155   17.2636    8.7983 C.ar    1  UNL1        0.0000
      4 C          12.2527   17.8421    7.5000 C.ar    1  UNL1        0.0000
      5 C          11.9589   19.1695    7.3735 C.ar    1  UNL1        0.0000
      6 H          11.8484   19.6008    6.3880 H       1  UNL1        0.0000
      7 C          11.8157   20.0103    8.4983 C.ar    1  UNL1        0.0000
      8 C          11.4209   21.3557    8.3777 C.ar    1  UNL1        0.0000
      9 H          11.1760   21.7335    7.3951 H       1  UNL1        0.0000
     10 C          11.3412   22.1653    9.4775 C.ar    1  UNL1        0.0000
     11 H          11.0348   23.1962    9.3796 H       1  UNL1        0.0000
     12 C          11.6501   21.6513   10.7440 C.ar    1  UNL1        0.0000
     13 H          11.5674   22.2910   11.6108 H       1  UNL1        0.0000
     14 C          12.0436   20.3489   10.8917 C.ar    1  UNL1        0.0000
     15 H          12.2540   19.9589   11.8772 H       1  UNL1        0.0000
     16 C          12.1471   19.4897    9.7769 C.ar    1  UNL1        0.0000
     17 C          12.5060   18.1203    9.8990 C.ar    1  UNL1        0.0000
     18 C          13.1392   17.6347   11.1296 C.3     1  UNL1        0.0000
     19 C          14.2661   18.3155   11.5989 C.2     1  UNL1        0.0000
     20 H          14.6330   19.1726   11.0564 H       1  UNL1        0.0000
     21 SI         12.7518   16.7501    6.0424 Si      1  UNL1        0.0000
     22 C          14.3008   15.7978    6.5928 C.ar    1  UNL1        0.0000
     23 C          14.5433   14.4636    6.2865 C.ar    1  UNL1        0.0000
     24 H          13.8324   13.9152    5.6875 H       1  UNL1        0.0000
     25 C          15.6823   13.8185    6.7393 C.ar    1  UNL1        0.0000
     26 H          15.8462   12.7792    6.4926 H       1  UNL1        0.0000
     27 C          16.6134   14.5043    7.5001 C.ar    1  UNL1        0.0000
     28 H          17.5087   14.0064    7.8453 H       1  UNL1        0.0000
     29 C          16.3934   15.8373    7.8095 C.ar    1  UNL1        0.0000
     30 H          17.1187   16.3831    8.3974 H       1  UNL1        0.0000
     31 C          15.2478   16.4701    7.3633 C.ar    1  UNL1        0.0000
     32 H          15.0794   17.5073    7.6192 H       1  UNL1        0.0000
     33 C          11.3144   15.7431    5.3339 C.ar    1  UNL1        0.0000
     34 C          11.5084   14.8211    4.3098 C.ar    1  UNL1        0.0000
     35 H          12.5048   14.6564    3.9255 H       1  UNL1        0.0000
     36 C          10.4449   14.1259    3.7640 C.ar    1  UNL1        0.0000
     37 H          10.6164   13.4095    2.9731 H       1  UNL1        0.0000
     38 C           9.1587   14.3522    4.2247 C.ar    1  UNL1        0.0000
     39 H           8.3268   13.8089    3.8005 H       1  UNL1        0.0000
     40 C           8.9437   15.2871    5.2229 C.ar    1  UNL1        0.0000
     41 H           7.9410   15.4802    5.5769 H       1  UNL1        0.0000
     42 C          10.0129   15.9753    5.7675 C.ar    1  UNL1        0.0000
     43 H           9.8397   16.7098    6.5401 H       1  UNL1        0.0000
     44 C          13.2755   17.9040    4.6202 C.ar    1  UNL1        0.0000
     45 C          14.6034   18.2457    4.3865 C.ar    1  UNL1        0.0000
     46 H          15.3753   17.8334    5.0205 H       1  UNL1        0.0000
     47 C          14.9536   19.0971    3.3536 C.ar    1  UNL1        0.0000
     48 H          15.9920   19.3482    3.1893 H       1  UNL1        0.0000
     49 C          13.9754   19.6263    2.5293 C.ar    1  UNL1        0.0000
     50 H          14.2461   20.2915    1.7221 H       1  UNL1        0.0000
     51 C          12.6480   19.2942    2.7430 C.ar    1  UNL1        0.0000
     52 H          11.8794   19.7001    2.1006 H       1  UNL1        0.0000
     53 C          12.3069   18.4412    3.7765 C.ar    1  UNL1        0.0000
     54 H          11.2700   18.1786    3.9324 H       1  UNL1        0.0000
     55 O          11.9734   13.7430   12.0361 O.3     1  UNL1        0.0000
     56 C          11.8921   14.0906   13.2936 C.ar    1  UNL1        0.0000
     57 C          11.3162   13.1500   14.2068 C.ar    1  UNL1        0.0000
     58 C          11.2612   13.4234   15.5411 C.ar    1  UNL1        0.0000
     59 H          10.8557   12.6878   16.2216 H       1  UNL1        0.0000
     60 C          11.6887   14.6590   16.0688 C.ar    1  UNL1        0.0000
     61 C          11.5422   14.9561   17.4366 C.ar    1  UNL1        0.0000
     62 H          11.1345   14.1935   18.0848 H       1  UNL1        0.0000
     63 C          11.8874   16.1836   17.9304 C.ar    1  UNL1        0.0000
     64 H          11.7752   16.4091   18.9804 H       1  UNL1        0.0000
     65 C          12.3584   17.1671   17.0525 C.ar    1  UNL1        0.0000
     66 H          12.5800   18.1548   17.4306 H       1  UNL1        0.0000
     67 C          12.5282   16.8961   15.7212 C.ar    1  UNL1        0.0000
     68 H          12.8566   17.6885   15.0657 H       1  UNL1        0.0000
     69 C          12.2460   15.6196   15.1866 C.ar    1  UNL1        0.0000
     70 C          12.4203   15.2858   13.8073 C.ar    1  UNL1        0.0000
     71 C          13.1540   16.2208   12.9565 C.2     1  UNL1        0.0000
     72 C          14.3308   16.8109   13.4364 C.2     1  UNL1        0.0000
     73 H          14.7696   16.4485   14.3527 H       1  UNL1        0.0000
     74 C          14.9046   17.8541   12.7360 C.2     1  UNL1        0.0000
     75 H          15.8145   18.3197   13.0857 H       1  UNL1        0.0000
     76 SI         10.6590   11.5274   13.5032 Si      1  UNL1        0.0000
     77 C           9.0083   11.7492   12.6003 C.ar    1  UNL1        0.0000
     78 C           8.5958   12.9878   12.1193 C.ar    1  UNL1        0.0000
     79 H           9.2558   13.8402   12.1951 H       1  UNL1        0.0000
     80 C           7.3639   13.1359   11.5071 C.ar    1  UNL1        0.0000
     81 H           7.0648   14.1060   11.1385 H       1  UNL1        0.0000
     82 C           6.5212   12.0470   11.3632 C.ar    1  UNL1        0.0000
     83 H           5.5581   12.1613   10.8859 H       1  UNL1        0.0000
     84 C           6.9186   10.8064   11.8345 C.ar    1  UNL1        0.0000
     85 H           6.2660    9.9515   11.7256 H       1  UNL1        0.0000
     86 C           8.1484   10.6635   12.4501 C.ar    1  UNL1        0.0000
     87 H           8.4469    9.6961   12.8298 H       1  UNL1        0.0000
     88 C          11.9959   10.5778   12.5525 C.ar    1  UNL1        0.0000
     89 C          11.6911    9.7382   11.4869 C.ar    1  UNL1        0.0000
     90 H          10.6669    9.6583   11.1533 H       1  UNL1        0.0000
     91 C          12.6763    9.0019   10.8537 C.ar    1  UNL1        0.0000
     92 H          12.4202    8.3564   10.0257 H       1  UNL1        0.0000
     93 C          13.9890    9.0811   11.2868 C.ar    1  UNL1        0.0000
     94 H          14.7586    8.4996   10.7999 H       1  UNL1        0.0000
     95 C          14.3091    9.9031   12.3541 C.ar    1  UNL1        0.0000
     96 H          15.3310    9.9620   12.7027 H       1  UNL1        0.0000
     97 C          13.3203   10.6454   12.9755 C.ar    1  UNL1        0.0000
     98 H          13.5740   11.2866   13.8089 H       1  UNL1        0.0000
     99 C          10.2217   10.4273   14.9991 C.ar    1  UNL1        0.0000
    100 C          11.0119    9.3502   15.3844 C.ar    1  UNL1        0.0000
    101 H          11.9054    9.1235   14.8204 H       1  UNL1        0.0000
    102 C          10.6727    8.5623   16.4705 C.ar    1  UNL1        0.0000
    103 H          11.3015    7.7288   16.7505 H       1  UNL1        0.0000
    104 C           9.5280    8.8396   17.1976 C.ar    1  UNL1        0.0000
    105 H           9.2604    8.2262   18.0461 H       1  UNL1        0.0000
    106 C           8.7256    9.9066   16.8283 C.ar    1  UNL1        0.0000
    107 H           7.8286   10.1275   17.3896 H       1  UNL1        0.0000
    108 C           9.0716   10.6869   15.7406 C.ar    1  UNL1        0.0000
    109 H           8.4376   11.5140   15.4530 H       1  UNL1        0.0000
@<TRIPOS>BOND
     1    50    49    1
     2    52    51    1
     3    49    51   ar
     4    49    47   ar
     5    51    53   ar
     6    37    36    1
     7    48    47    1
     8    47    45   ar
     9    36    38   ar
    10    36    34   ar
    11    53    54    1
    12    53    44   ar
    13    39    38    1
    14    35    34    1
    15    38    40   ar
    16    34    33   ar
    17    45    44   ar
    18    45    46    1
    19    44    21    1
    20    40    41    1
    21    40    42   ar
    22    33    42   ar
    23    33    21    1
    24    24    23    1
    25    42    43    1
    26    21    22    1
    27    21     4    1
    28    23    22   ar
    29    23    25   ar
    30     6     5    1
    31    26    25    1
    32    22    31   ar
    33    25    27   ar
    34    31    32    1
    35    31    29   ar
    36     5     4   ar
    37     5     7   ar
    38     9     8    1
    39     4     3   ar
    40    27    29   ar
    41    27    28    1
    42    29    30    1
    43     8     7   ar
    44     8    10   ar
    45     7    16   ar
    46     3     2    1
    47     3    17   ar
    48    11    10    1
    49    10    12   ar
    50    16    17   ar
    51    16    14   ar
    52    17    18    1
    53    92    91    1
    54    12    14   ar
    55    12    13    1
    56    94    93    1
    57    91    93   ar
    58    91    89   ar
    59    83    82    1
    60    14    15    1
    61    20    19    1
    62    18    19    1
    63    18     1    1
    64    81    80    1
    65    90    89    1
    66    93    95   ar
    67    82    80   ar
    68    82    84   ar
    69    89    88   ar
    70    80    78   ar
    71    19    74    2
    72    85    84    1
    73     1    71    1
    74    84    86   ar
    75    55    56    1
    76    78    79    1
    77    78    77   ar
    78    95    96    1
    79    95    97   ar
    80    86    77   ar
    81    86    87    1
    82    88    97   ar
    83    88    76    1
    84    77    76    1
    85    74    75    1
    86    74    72    1
    87    71    72    2
    88    71    70    1
    89    97    98    1
    90    56    70   ar
    91    56    57   ar
    92    72    73    1
    93    76    57    1
    94    76    99    1
    95    70    69   ar
    96    57    58   ar
    97   101   100    1
    98    99   100   ar
    99    99   108   ar
   100    68    67    1
   101    69    67   ar
   102    69    60   ar
   103   100   102   ar
   104   109   108    1
   105    58    60   ar
   106    58    59    1
   107    67    65   ar
   108   108   106   ar
   109    60    61   ar
   110   102   103    1
   111   102   104   ar
   112   106   104   ar
   113   106   107    1
   114    65    66    1
   115    65    63   ar
   116   104   105    1
   117    61    63   ar
   118    61    62    1
   119    63    64    1
