@<TRIPOS>MOLECULE
1,2,3
 53 54 0 0 0
SMALL
GASTEIGER

@<TRIPOS>ATOM
      1 N           0.0446    2.9961   10.8628 N.pl3   1  UNL1       -0.2367
      2 O          -1.7348    4.9161   11.9335 O.3     1  UNL1       -0.2872
      3 O           0.7547    1.5800   13.0428 O.3     1  UNL1       -0.4932
      4 C          -3.7795    5.4481    6.6593 C.3     1  UNL1       -0.0127
      5 C          -3.1936    4.4585    5.6482 C.3     1  UNL1       -0.0560
      6 H          -3.6409    4.6287    4.6708 H       1  UNL1        0.0238
      7 H          -3.4036    3.4319    5.9394 H       1  UNL1        0.0238
      8 H          -2.1181    4.5889    5.5529 H       1  UNL1        0.0238
      9 C          -5.2974    5.2264    6.7196 C.3     1  UNL1       -0.0560
     10 H          -5.7770    5.9474    7.3755 H       1  UNL1        0.0238
     11 H          -5.5162    4.2283    7.0936 H       1  UNL1        0.0238
     12 H          -5.7323    5.3272    5.7271 H       1  UNL1        0.0238
     13 C          -3.4827    6.8691    6.1607 C.3     1  UNL1       -0.0560
     14 H          -3.9174    7.6189    6.8154 H       1  UNL1        0.0238
     15 H          -3.8927    7.0103    5.1625 H       1  UNL1        0.0238
     16 H          -2.4088    7.0365    6.1197 H       1  UNL1        0.0238
     17 C          -3.1944    5.2688    8.0513 C.ar    1  UNL1       -0.0412
     18 C          -3.6304    6.1076    9.0932 C.ar    1  UNL1       -0.0507
     19 H          -4.3670    6.8522    8.8442 H       1  UNL1        0.0625
     20 C          -3.1871    6.0317   10.3885 C.ar    1  UNL1        0.0053
     21 C          -3.7617    6.9537   11.4581 C.3     1  UNL1       -0.0090
     22 C          -2.6381    7.7456   12.1362 C.3     1  UNL1       -0.0559
     23 H          -3.0491    8.3709   12.9274 H       1  UNL1        0.0238
     24 H          -2.1444    8.3906   11.4118 H       1  UNL1        0.0238
     25 H          -1.8987    7.0778   12.5667 H       1  UNL1        0.0238
     26 C          -4.4802    6.0727   12.4849 C.3     1  UNL1       -0.0559
     27 H          -3.7839    5.3402   12.8779 H       1  UNL1        0.0238
     28 H          -5.3061    5.5402   12.0158 H       1  UNL1        0.0238
     29 H          -4.8736    6.6773   13.3004 H       1  UNL1        0.0238
     30 C          -4.7755    7.9671   10.9123 C.3     1  UNL1       -0.0559
     31 H          -5.6411    7.4732   10.4761 H       1  UNL1        0.0238
     32 H          -4.3234    8.6239   10.1717 H       1  UNL1        0.0238
     33 H          -5.1285    8.5872   11.7342 H       1  UNL1        0.0238
     34 C          -2.1863    5.0536   10.7365 C.ar    1  UNL1        0.1877
     35 C          -1.7229    4.2127    9.6717 C.ar    1  UNL1        0.0240
     36 C          -2.2588    4.3256    8.3707 C.ar    1  UNL1       -0.0493
     37 H          -1.8767    3.6477    7.6226 H       1  UNL1        0.0625
     38 C          -0.7207    3.2232    9.8382 C.3     1  UNL1        0.0956
     39 H          -0.6088    2.5736    8.9606 H       1  UNL1        0.0591
     40 C           0.9825    1.9620   10.7249 C.ar    1  UNL1        0.0901
     41 C           1.5836    1.6427    9.5070 C.ar    1  UNL1       -0.0355
     42 H           1.4071    2.2679    8.6446 H       1  UNL1        0.0638
     43 C           2.4396    0.5621    9.3859 C.ar    1  UNL1       -0.0597
     44 H           2.8873    0.3374    8.4301 H       1  UNL1        0.0618
     45 C           2.7253   -0.2120   10.4925 C.ar    1  UNL1       -0.0582
     46 H           3.3852   -1.0622   10.4103 H       1  UNL1        0.0619
     47 C           2.1852    0.1155   11.7272 C.ar    1  UNL1       -0.0181
     48 H           2.4498   -0.4849   12.5821 H       1  UNL1        0.0655
     49 C           1.3304    1.2007   11.8640 C.ar    1  UNL1        0.1425
     50 C           0.9437    0.7272   14.1555 C.3     1  UNL1        0.0789
     51 H           0.5596   -0.2775   13.9457 H       1  UNL1        0.0660
     52 H           0.3773    1.1667   14.9746 H       1  UNL1        0.0660
     53 H           1.9980    0.6676   14.4431 H       1  UNL1        0.0660
@<TRIPOS>BOND
     1     6     5    1
     2    15    13    1
     3     8     5    1
     4     5     7    1
     5     5     4    1
     6    12     9    1
     7    16    13    1
     8    13     4    1
     9    13    14    1
    10     4     9    1
    11     4    17    1
    12     9    11    1
    13     9    10    1
    14    37    36    1
    15    17    36   ar
    16    17    18   ar
    17    36    35   ar
    18    44    43    1
    19    42    41    1
    20    19    18    1
    21    39    38    1
    22    18    20   ar
    23    43    41   ar
    24    43    45   ar
    25    41    40   ar
    26    35    38    1
    27    35    34   ar
    28    38     1    1
    29    32    30    1
    30    20    34   ar
    31    20    21    1
    32    46    45    1
    33    31    30    1
    34    45    47   ar
    35    40     1    1
    36    40    49   ar
    37    34     2    1
    38    30    21    1
    39    30    33    1
    40    24    22    1
    41    21    22    1
    42    21    26    1
    43    47    49   ar
    44    47    48    1
    45    49     3    1
    46    28    26    1
    47    22    25    1
    48    22    23    1
    49    26    27    1
    50    26    29    1
    51     3    50    1
    52    51    50    1
    53    50    53    1
    54    50    52    1
