@<TRIPOS>MOLECULE
1,3,4
 87 89 0 0 0
SMALL
GASTEIGER

@<TRIPOS>ATOM
      1 N           7.5154   12.6828    1.5923 N.3     1  UNL1       -0.2840
      2 N           6.6913   14.8176    1.1172 N.3     1  UNL1       -0.2840
      3 O           8.0751   10.8898    4.0481 O.3     1  UNL1       -0.2873
      4 O           7.0240   13.8597    4.4990 O.3     1  UNL1       -0.2873
      5 C           6.8572   10.4590    3.7695 C.ar    1  UNL1        0.1870
      6 C           6.0785    9.6860    4.6750 C.ar    1  UNL1        0.0052
      7 C           4.7753    9.3807    4.3309 C.ar    1  UNL1       -0.0507
      8 H           4.1750    8.8302    5.0348 H       1  UNL1        0.0625
      9 C           4.1872    9.7390    3.1201 C.ar    1  UNL1       -0.0412
     10 C           4.9983   10.3648    2.1894 C.ar    1  UNL1       -0.0500
     11 H           4.6315   10.5921    1.1999 H       1  UNL1        0.0625
     12 C           6.3077   10.7008    2.4898 C.ar    1  UNL1        0.0138
     13 C           6.1981   14.8872    4.4144 C.ar    1  UNL1        0.1870
     14 C           5.1795   15.1178    5.3829 C.ar    1  UNL1        0.0052
     15 C           4.3793   16.2371    5.2640 C.ar    1  UNL1       -0.0507
     16 H           3.6224   16.4079    6.0103 H       1  UNL1        0.0625
     17 C           4.4839   17.1610    4.2266 C.ar    1  UNL1       -0.0412
     18 C           5.4336   16.9013    3.2574 C.ar    1  UNL1       -0.0500
     19 H           5.5498   17.5496    2.4033 H       1  UNL1        0.0625
     20 C           6.2711   15.7997    3.3372 C.ar    1  UNL1        0.0138
     21 C           7.2066   11.2558    1.4159 C.3     1  UNL1        0.0289
     22 H           8.1553   10.7045    1.4401 H       1  UNL1        0.0477
     23 H           6.7309   11.0991    0.4311 H       1  UNL1        0.0477
     24 C           7.2640   15.5851    2.2294 C.3     1  UNL1        0.0289
     25 H           7.5465   16.5557    1.8084 H       1  UNL1        0.0477
     26 H           8.1676   15.0840    2.6288 H       1  UNL1        0.0477
     27 C           8.3462   13.2052    0.4839 C.3     1  UNL1        0.0132
     28 H           8.3493   12.5090   -0.3642 H       1  UNL1        0.0440
     29 H           9.3760   13.3510    0.8220 H       1  UNL1        0.0440
     30 C           7.6766   14.5433    0.0840 C.3     1  UNL1        0.0132
     31 H           8.3896   15.3625   -0.0068 H       1  UNL1        0.0440
     32 H           7.1492   14.4365   -0.8693 H       1  UNL1        0.0440
     33 C           6.2711   13.4974    1.4929 C.3     1  UNL1        0.0526
     34 H           5.6333   13.0986    0.6856 H       1  UNL1        0.0595
     35 H           5.7089   13.4905    2.4259 H       1  UNL1        0.0595
     36 C           6.6969    9.1749    5.9715 C.3     1  UNL1       -0.0090
     37 C           5.7745    8.2352    6.7568 C.3     1  UNL1       -0.0559
     38 H           4.8746    8.7468    7.0906 H       1  UNL1        0.0238
     39 H           6.3010    7.8777    7.6404 H       1  UNL1        0.0238
     40 H           5.4928    7.3702    6.1605 H       1  UNL1        0.0238
     41 C           7.9649    8.3839    5.6175 C.3     1  UNL1       -0.0559
     42 H           7.7048    7.5121    5.0200 H       1  UNL1        0.0238
     43 H           8.4713    8.0464    6.5206 H       1  UNL1        0.0238
     44 H           8.6431    9.0044    5.0404 H       1  UNL1        0.0238
     45 C           7.0448   10.3595    6.8791 C.3     1  UNL1       -0.0559
     46 H           7.5994   11.1118    6.3231 H       1  UNL1        0.0238
     47 H           7.6375   10.0224    7.7282 H       1  UNL1        0.0238
     48 H           6.1330   10.8148    7.2554 H       1  UNL1        0.0238
     49 C           2.7268    9.3990    2.8659 C.3     1  UNL1       -0.0127
     50 C           2.2430    9.8810    1.4953 C.3     1  UNL1       -0.0560
     51 H           1.1872    9.6436    1.3769 H       1  UNL1        0.0238
     52 H           2.7890    9.3896    0.6932 H       1  UNL1        0.0238
     53 H           2.3602   10.9579    1.3997 H       1  UNL1        0.0238
     54 C           2.5353    7.8772    2.9316 C.3     1  UNL1       -0.0560
     55 H           2.7911    7.4901    3.9138 H       1  UNL1        0.0238
     56 H           3.1714    7.3876    2.1971 H       1  UNL1        0.0238
     57 H           1.4994    7.6171    2.7216 H       1  UNL1        0.0238
     58 C           1.8631   10.0768    3.9387 C.3     1  UNL1       -0.0560
     59 H           0.8102    9.8560    3.7727 H       1  UNL1        0.0238
     60 H           2.0022   11.1549    3.9023 H       1  UNL1        0.0238
     61 H           2.1314    9.7349    4.9341 H       1  UNL1        0.0238
     62 C           4.9331   14.0954    6.4865 C.3     1  UNL1       -0.0090
     63 C           4.5283   12.7780    5.8103 C.3     1  UNL1       -0.0559
     64 H           3.6554   12.9374    5.1796 H       1  UNL1        0.0238
     65 H           4.2777   12.0238    6.5533 H       1  UNL1        0.0238
     66 H           5.3372   12.4012    5.1893 H       1  UNL1        0.0238
     67 C           6.2083   13.9045    7.3158 C.3     1  UNL1       -0.0559
     68 H           7.0041   13.5265    6.6793 H       1  UNL1        0.0238
     69 H           6.0332   13.1955    8.1232 H       1  UNL1        0.0238
     70 H           6.5154   14.8556    7.7495 H       1  UNL1        0.0238
     71 C           3.8083   14.4950    7.4491 C.3     1  UNL1       -0.0559
     72 H           4.0342   15.4311    7.9557 H       1  UNL1        0.0238
     73 H           3.6993   13.7218    8.2080 H       1  UNL1        0.0238
     74 H           2.8568   14.5869    6.9306 H       1  UNL1        0.0238
     75 C           3.5577   18.3671    4.1967 C.3     1  UNL1       -0.0127
     76 C           3.8285   19.2821    2.9992 C.3     1  UNL1       -0.0560
     77 H           3.1508   20.1337    3.0294 H       1  UNL1        0.0238
     78 H           3.6663   18.7548    2.0623 H       1  UNL1        0.0238
     79 H           4.8479   19.6604    3.0225 H       1  UNL1        0.0238
     80 C           3.7540   19.1901    5.4778 C.3     1  UNL1       -0.0560
     81 H           4.7878   19.5203    5.5555 H       1  UNL1        0.0238
     82 H           3.5174   18.6052    6.3620 H       1  UNL1        0.0238
     83 H           3.1096   20.0674    5.4664 H       1  UNL1        0.0238
     84 C           2.1023   17.8867    4.1100 C.3     1  UNL1       -0.0560
     85 H           1.8370   17.2793    4.9707 H       1  UNL1        0.0238
     86 H           1.9602   17.2865    3.2138 H       1  UNL1        0.0238
     87 H           1.4242   18.7374    4.0698 H       1  UNL1        0.0238
@<TRIPOS>BOND
     1    32    30    1
     2    28    27    1
     3    31    30    1
     4    30    27    1
     5    30     2    1
     6    23    21    1
     7    27    29    1
     8    27     1    1
     9    34    33    1
    10    52    50    1
    11     2    33    1
    12     2    24    1
    13    11    10    1
    14    51    50    1
    15    53    50    1
    16    21    22    1
    17    21     1    1
    18    21    12    1
    19    33     1    1
    20    33    35    1
    21    50    49    1
    22    25    24    1
    23    78    76    1
    24    10    12   ar
    25    10     9   ar
    26    56    54    1
    27    24    26    1
    28    24    20    1
    29    19    18    1
    30    12     5   ar
    31    57    54    1
    32    49    54    1
    33    49     9    1
    34    49    58    1
    35    54    55    1
    36    76    79    1
    37    76    77    1
    38    76    75    1
    39     9     7   ar
    40    86    84    1
    41    18    20   ar
    42    18    17   ar
    43    20    13   ar
    44     5     3    1
    45     5     6   ar
    46    59    58    1
    47    60    58    1
    48    58    61    1
    49    87    84    1
    50    84    75    1
    51    84    85    1
    52    75    17    1
    53    75    80    1
    54    17    15   ar
    55     7     6   ar
    56     7     8    1
    57    13     4    1
    58    13    14   ar
    59     6    36    1
    60    42    41    1
    61    44    41    1
    62    64    63    1
    63    66    63    1
    64    15    14   ar
    65    15    16    1
    66    14    62    1
    67    83    80    1
    68    80    81    1
    69    80    82    1
    70    41    36    1
    71    41    43    1
    72    63    62    1
    73    63    65    1
    74    36    37    1
    75    36    45    1
    76    40    37    1
    77    46    45    1
    78    62    67    1
    79    62    71    1
    80    68    67    1
    81    37    38    1
    82    37    39    1
    83    45    48    1
    84    45    47    1
    85    74    71    1
    86    67    70    1
    87    67    69    1
    88    71    72    1
    89    71    73    1
