@<TRIPOS>MOLECULE
1,2,3
 53 55 0 0 0
SMALL
GASTEIGER

@<TRIPOS>ATOM
      1 O           5.5622    8.9577    3.0963 O.3     1  UNL1       -0.2873
      2 O           4.7079    8.0359   -0.6109 O.3     1  UNL1       -0.2872
      3 N           4.8897   10.4378    0.6680 N.pl3   1  UNL1       -0.2397
      4 C           4.5623   11.0880    3.4586 C.ar    1  UNL1        0.0338
      5 C           4.6212    9.6865    3.6636 C.ar    1  UNL1        0.1869
      6 C           3.6878    9.1165    4.5462 C.ar    1  UNL1       -0.0143
      7 H           3.7603    8.0612    4.7527 H       1  UNL1        0.0656
      8 C           2.7024    9.8829    5.1297 C.ar    1  UNL1       -0.0579
      9 H           1.9911    9.4204    5.7998 H       1  UNL1        0.0619
     10 C           2.6080   11.2347    4.8520 C.ar    1  UNL1       -0.0580
     11 H           1.8137   11.8259    5.2842 H       1  UNL1        0.0620
     12 C           3.5389   11.8471    4.0220 C.ar    1  UNL1       -0.0390
     13 C           3.3845   13.3152    3.7361 C.3     1  UNL1       -0.0390
     14 H           2.3594   13.5235    3.4317 H       1  UNL1        0.0278
     15 H           4.0551   13.6462    2.9477 H       1  UNL1        0.0278
     16 H           3.5852   13.9009    4.6331 H       1  UNL1        0.0278
     17 C           5.6000   11.7325    2.6229 C.ar    1  UNL1        0.0115
     18 C           5.6467   11.4763    1.2461 C.ar    1  UNL1        0.0566
     19 C           6.4756   12.2382    0.4253 C.ar    1  UNL1       -0.0385
     20 H           6.4372   12.0827   -0.6434 H       1  UNL1        0.0637
     21 C           7.3443   13.1607    0.9770 C.ar    1  UNL1       -0.0597
     22 H           7.9906   13.7447    0.3376 H       1  UNL1        0.0618
     23 C           7.3889   13.3259    2.3493 C.ar    1  UNL1       -0.0581
     24 H           8.0928   14.0198    2.7862 H       1  UNL1        0.0620
     25 C           6.5145   12.6330    3.1783 C.ar    1  UNL1       -0.0408
     26 C           6.5714   12.8592    4.6596 C.3     1  UNL1       -0.0391
     27 H           7.6055   12.9607    4.9848 H       1  UNL1        0.0278
     28 H           6.1053   12.0357    5.1940 H       1  UNL1        0.0278
     29 H           6.0480   13.7769    4.9256 H       1  UNL1        0.0278
     30 C           3.9716   10.7566   -0.1814 C.3     1  UNL1        0.0954
     31 H           3.7126   11.8171   -0.2964 H       1  UNL1        0.0591
     32 C           3.6846    8.5128   -1.2427 C.ar    1  UNL1        0.1877
     33 C           3.2595    9.8665   -1.0354 C.ar    1  UNL1        0.0237
     34 C           2.1639   10.3877   -1.7469 C.ar    1  UNL1       -0.0530
     35 H           1.8653   11.4107   -1.5637 H       1  UNL1        0.0622
     36 C           1.4839    9.6120   -2.6414 C.ar    1  UNL1       -0.0609
     37 H           0.6337   10.0024   -3.1796 H       1  UNL1        0.0618
     38 C           1.9061    8.2992   -2.8718 C.ar    1  UNL1       -0.0544
     39 H           1.3529    7.7257   -3.5976 H       1  UNL1        0.0622
     40 C           2.9796    7.7351   -2.2231 C.ar    1  UNL1        0.0050
     41 C           3.4229    6.3050   -2.5093 C.3     1  UNL1       -0.0090
     42 C           3.2730    5.4706   -1.2307 C.3     1  UNL1       -0.0559
     43 H           3.9423    5.8300   -0.4522 H       1  UNL1        0.0238
     44 H           3.5101    4.4286   -1.4349 H       1  UNL1        0.0238
     45 H           2.2464    5.5232   -0.8717 H       1  UNL1        0.0238
     46 C           4.8884    6.3060   -2.9668 C.3     1  UNL1       -0.0559
     47 H           5.0075    6.9329   -3.8495 H       1  UNL1        0.0238
     48 H           5.2015    5.2946   -3.2172 H       1  UNL1        0.0238
     49 H           5.5297    6.6802   -2.1748 H       1  UNL1        0.0238
     50 C           2.5907    5.6367   -3.6104 C.3     1  UNL1       -0.0559
     51 H           1.5454    5.5539   -3.3218 H       1  UNL1        0.0238
     52 H           2.9690    4.6305   -3.7797 H       1  UNL1        0.0238
     53 H           2.6621    6.1830   -4.5485 H       1  UNL1        0.0238
@<TRIPOS>BOND
     1    53    50    1
     2    47    46    1
     3    52    50    1
     4    50    51    1
     5    50    41    1
     6    39    38    1
     7    48    46    1
     8    37    36    1
     9    46    41    1
    10    46    49    1
    11    38    36   ar
    12    38    40   ar
    13    36    34   ar
    14    41    40    1
    15    41    42    1
    16    40    32   ar
    17    34    35    1
    18    34    33   ar
    19    44    42    1
    20    32    33   ar
    21    32     2    1
    22    42    45    1
    23    42    43    1
    24    33    30    1
    25    20    19    1
    26    31    30    1
    27    30     3    1
    28    22    21    1
    29    19    21   ar
    30    19    18   ar
    31     3    18    1
    32    21    23   ar
    33    18    17   ar
    34    23    24    1
    35    23    25   ar
    36    17    25   ar
    37    17     4    1
    38    15    13    1
    39     1     5    1
    40    25    26    1
    41    14    13    1
    42     4     5   ar
    43     4    12   ar
    44     5     6   ar
    45    13    12    1
    46    13    16    1
    47    12    10   ar
    48     6     7    1
    49     6     8   ar
    50    26    29    1
    51    26    27    1
    52    26    28    1
    53    10     8   ar
    54    10    11    1
    55     8     9    1
