@<TRIPOS>MOLECULE
1,2,3
 84 88 0 0 0
SMALL
GASTEIGER

@<TRIPOS>ATOM
      1 P          11.4176    1.3816    5.6303 P.3     1  UNL1        0.0000
      2 SI          8.4348   -0.0257    7.0446 Si      1  UNL1        0.0000
      3 O           8.7521    1.7049    4.6660 O.3     1  UNL1        0.0000
      4 C           7.1821   -0.1497    8.5074 C.3     1  UNL1        0.0000
      5 H           6.6619   -1.1012    8.4745 H       1  UNL1        0.0000
      6 H           6.4444    0.6434    8.4621 H       1  UNL1        0.0000
      7 H           7.6883   -0.0768    9.4642 H       1  UNL1        0.0000
      8 C           9.3472   -1.7300    6.9962 C.3     1  UNL1        0.0000
      9 H          10.1476   -1.7748    7.7245 H       1  UNL1        0.0000
     10 H           9.7763   -1.9290    6.0208 H       1  UNL1        0.0000
     11 H           8.6401   -2.5197    7.2210 H       1  UNL1        0.0000
     12 C           7.3630   -0.0557    5.4256 C.ar    1  UNL1        0.0000
     13 C           6.3182   -0.9306    5.1668 C.ar    1  UNL1        0.0000
     14 H           6.0350   -1.6096    5.9524 H       1  UNL1        0.0000
     15 C           5.6677   -0.9520    3.9401 C.ar    1  UNL1        0.0000
     16 C           6.0926   -0.0718    2.9455 C.ar    1  UNL1        0.0000
     17 H           5.6069   -0.0911    1.9839 H       1  UNL1        0.0000
     18 C           7.1180    0.8319    3.1616 C.ar    1  UNL1        0.0000
     19 C           7.7143    0.8264    4.4185 C.ar    1  UNL1        0.0000
     20 C           4.5173   -1.9014    3.6335 C.3     1  UNL1        0.0000
     21 C           4.1668   -2.8035    4.8197 C.3     1  UNL1        0.0000
     22 H           5.0108   -3.4310    5.0962 H       1  UNL1        0.0000
     23 H           3.3380   -3.4545    4.5476 H       1  UNL1        0.0000
     24 H           3.8632   -2.2140    5.6814 H       1  UNL1        0.0000
     25 C           4.9052   -2.7999    2.4504 C.3     1  UNL1        0.0000
     26 H           5.0963   -2.2178    1.5530 H       1  UNL1        0.0000
     27 H           4.1026   -3.5023    2.2343 H       1  UNL1        0.0000
     28 H           5.8044   -3.3649    2.6882 H       1  UNL1        0.0000
     29 C           3.2709   -1.0789    3.2771 C.3     1  UNL1        0.0000
     30 H           3.0099   -0.4196    4.1022 H       1  UNL1        0.0000
     31 H           2.4281   -1.7389    3.0815 H       1  UNL1        0.0000
     32 H           3.4356   -0.4686    2.3933 H       1  UNL1        0.0000
     33 C           7.6226    1.8583    2.1561 C.3     1  UNL1        0.0000
     34 C           7.0427    3.2303    2.5546 C.3     1  UNL1        0.0000
     35 H           5.9585    3.2151    2.4638 H       1  UNL1        0.0000
     36 H           7.4409    4.0112    1.9086 H       1  UNL1        0.0000
     37 H           7.2893    3.4768    3.5854 H       1  UNL1        0.0000
     38 C           7.2072    1.5357    0.7225 C.3     1  UNL1        0.0000
     39 H           7.6049    0.5716    0.4116 H       1  UNL1        0.0000
     40 H           7.5674    2.3048    0.0432 H       1  UNL1        0.0000
     41 H           6.1236    1.5151    0.6407 H       1  UNL1        0.0000
     42 C           9.6172    1.8290    3.6207 C.ar    1  UNL1        0.0000
     43 C           9.1323    1.9207    2.3189 C.ar    1  UNL1        0.0000
     44 C          10.0627    2.0861    1.3075 C.ar    1  UNL1        0.0000
     45 H           9.7144    2.1667    0.2912 H       1  UNL1        0.0000
     46 C          11.4351    2.1615    1.5584 C.ar    1  UNL1        0.0000
     47 C          11.8836    2.0024    2.8619 C.ar    1  UNL1        0.0000
     48 H          12.9346    2.0005    3.1034 H       1  UNL1        0.0000
     49 C          10.9787    1.8129    3.8991 C.ar    1  UNL1        0.0000
     50 C          12.3852    2.3906    0.3919 C.3     1  UNL1        0.0000
     51 C          12.0170    3.7097   -0.3020 C.3     1  UNL1        0.0000
     52 H          12.7048    3.9061   -1.1216 H       1  UNL1        0.0000
     53 H          12.0780    4.5348    0.4048 H       1  UNL1        0.0000
     54 H          11.0090    3.6808   -0.7062 H       1  UNL1        0.0000
     55 C          12.2559    1.2248   -0.5981 C.3     1  UNL1        0.0000
     56 H          12.9419    1.3641   -1.4308 H       1  UNL1        0.0000
     57 H          11.2480    1.1509   -0.9974 H       1  UNL1        0.0000
     58 H          12.4977    0.2852   -0.1052 H       1  UNL1        0.0000
     59 C          13.8470    2.4803    0.8382 C.3     1  UNL1        0.0000
     60 H          14.1766    1.5494    1.2940 H       1  UNL1        0.0000
     61 H          13.9913    3.2935    1.5462 H       1  UNL1        0.0000
     62 H          14.4778    2.6714   -0.0275 H       1  UNL1        0.0000
     63 C          12.0885   -0.2999    5.3738 C.ar    1  UNL1        0.0000
     64 C          11.8576   -1.0542    4.2284 C.ar    1  UNL1        0.0000
     65 H          11.3197   -0.6270    3.3931 H       1  UNL1        0.0000
     66 C          12.3193   -2.3568    4.1520 C.ar    1  UNL1        0.0000
     67 H          12.1400   -2.9357    3.2572 H       1  UNL1        0.0000
     68 C          13.0021   -2.9217    5.2159 C.ar    1  UNL1        0.0000
     69 H          13.3585   -3.9392    5.1501 H       1  UNL1        0.0000
     70 C          13.2156   -2.1822    6.3687 C.ar    1  UNL1        0.0000
     71 H          13.7373   -2.6208    7.2070 H       1  UNL1        0.0000
     72 C          12.7524   -0.8840    6.4503 C.ar    1  UNL1        0.0000
     73 H          12.8957   -0.3037    7.3492 H       1  UNL1        0.0000
     74 C          12.9290    2.3899    5.8189 C.ar    1  UNL1        0.0000
     75 C          14.2349    1.9203    5.8626 C.ar    1  UNL1        0.0000
     76 H          14.4383    0.8657    5.7459 H       1  UNL1        0.0000
     77 C          15.2774    2.8103    6.0590 C.ar    1  UNL1        0.0000
     78 H          16.2930    2.4426    6.0959 H       1  UNL1        0.0000
     79 C          15.0279    4.1641    6.2119 C.ar    1  UNL1        0.0000
     80 H          15.8467    4.8492    6.3768 H       1  UNL1        0.0000
     81 C          13.7271    4.6406    6.1503 C.ar    1  UNL1        0.0000
     82 H          13.5267    5.6961    6.2661 H       1  UNL1        0.0000
     83 C          12.6875    3.7550    5.9514 C.ar    1  UNL1        0.0000
     84 H          11.6635    4.1116    5.8998 H       1  UNL1        0.0000
@<TRIPOS>BOND
     1    56    55    1
     2    52    51    1
     3    57    55    1
     4    54    51    1
     5    55    58    1
     6    55    50    1
     7    51    50    1
     8    51    53    1
     9    62    59    1
    10    40    38    1
    11    45    44    1
    12    50    59    1
    13    50    46    1
    14    39    38    1
    15    41    38    1
    16    38    33    1
    17    59    60    1
    18    59    61    1
    19    44    46   ar
    20    44    43   ar
    21    26    25    1
    22    46    47   ar
    23    36    34    1
    24    17    16    1
    25    33    43    1
    26    33    34    1
    27    33    18    1
    28    27    25    1
    29    43    42   ar
    30    32    29    1
    31    25    28    1
    32    25    20    1
    33    35    34    1
    34    34    37    1
    35    47    48    1
    36    47    49   ar
    37    16    18   ar
    38    16    15   ar
    39    31    29    1
    40    18    19   ar
    41    67    66    1
    42    29    20    1
    43    29    30    1
    44    65    64    1
    45    42    49   ar
    46    42     3    1
    47    20    15    1
    48    20    21    1
    49    49     1    1
    50    15    13   ar
    51    66    64   ar
    52    66    68   ar
    53    64    63   ar
    54    19     3    1
    55    19    12   ar
    56    23    21    1
    57    21    22    1
    58    21    24    1
    59    69    68    1
    60    13    12   ar
    61    13    14    1
    62    68    70   ar
    63    63     1    1
    64    63    72   ar
    65    12     2    1
    66     1    74    1
    67    76    75    1
    68    74    75   ar
    69    74    83   ar
    70    75    77   ar
    71    84    83    1
    72    83    81   ar
    73    10     8    1
    74    77    78    1
    75    77    79   ar
    76    81    79   ar
    77    81    82    1
    78    79    80    1
    79    70    72   ar
    80    70    71    1
    81    72    73    1
    82     8     2    1
    83     8    11    1
    84     8     9    1
    85     2     4    1
    86     6     4    1
    87     5     4    1
    88     4     7    1
