@<TRIPOS>MOLECULE
1,4,5,7
 42 41 0 0 0
SMALL
GASTEIGER

@<TRIPOS>ATOM
      1 P           6.3121    5.7836    2.7771 P.3     1  UNL1        0.0000
      2 P           3.6415   11.0308    3.2645 P.3     1  UNL1        0.0000
      3 SI          7.9765    8.1940    3.7001 Si      1  UNL1        0.0000
      4 SI          6.4354   10.3408    2.0646 Si      1  UNL1        0.0000
      5 N           6.6696    8.7962    2.8160 N.3     1  UNL1        0.0000
      6 C           7.6101    6.3075    3.9404 C.3     1  UNL1        0.0000
      7 C           4.5385   10.2679    1.9092 C.3     1  UNL1        0.0000
      8 C           7.2035    5.9938    1.1794 C.3     1  UNL1        0.0000
      9 C           6.4522    3.9401    2.9251 C.3     1  UNL1        0.0000
     10 C           1.9084   10.7716    2.6343 C.3     1  UNL1        0.0000
     11 C           3.6915   12.8667    2.9139 C.3     1  UNL1        0.0000
     12 C           9.6988    8.3266    2.8700 C.3     1  UNL1        0.0000
     13 C           8.1885    8.9012    5.4712 C.3     1  UNL1        0.0000
     14 C           7.2106   11.7889    3.0429 C.3     1  UNL1        0.0000
     15 C           7.1898   10.3510    0.2970 C.3     1  UNL1        0.0000
     16 H           7.2486    6.1162    4.9520 H       1  UNL1        0.0000
     17 H           8.4973    5.6923    3.7786 H       1  UNL1        0.0000
     18 H           4.1284   10.5893    0.9428 H       1  UNL1        0.0000
     19 H           8.2099    5.5802    1.2572 H       1  UNL1        0.0000
     20 H           6.6649    5.4838    0.3804 H       1  UNL1        0.0000
     21 H           7.2573    7.0608    0.9631 H       1  UNL1        0.0000
     22 H           6.1284    3.6286    3.9170 H       1  UNL1        0.0000
     23 H           5.8200    3.4533    2.1848 H       1  UNL1        0.0000
     24 H           7.4869    3.6315    2.7759 H       1  UNL1        0.0000
     25 H           1.1853   11.2541    3.2925 H       1  UNL1        0.0000
     26 H           1.8090   11.1936    1.6325 H       1  UNL1        0.0000
     27 H           1.7108    9.6977    2.6028 H       1  UNL1        0.0000
     28 H           4.6771   13.2462    3.1720 H       1  UNL1        0.0000
     29 H           3.5008   13.0573    1.8576 H       1  UNL1        0.0000
     30 H           2.9471   13.3855    3.5166 H       1  UNL1        0.0000
     31 H          10.4756    7.8503    3.4603 H       1  UNL1        0.0000
     32 H           9.7110    7.8823    1.8803 H       1  UNL1        0.0000
     33 H           9.9658    9.3714    2.7589 H       1  UNL1        0.0000
     34 H           8.9218    8.3549    6.0568 H       1  UNL1        0.0000
     35 H           8.5104    9.9348    5.4185 H       1  UNL1        0.0000
     36 H           7.2451    8.8814    6.0092 H       1  UNL1        0.0000
     37 H           8.2687   11.6071    3.1955 H       1  UNL1        0.0000
     38 H           7.1055   12.7357    2.5244 H       1  UNL1        0.0000
     39 H           6.7437   11.8794    4.0180 H       1  UNL1        0.0000
     40 H           6.7440    9.5720   -0.3159 H       1  UNL1        0.0000
     41 H           7.0425   11.2992   -0.2077 H       1  UNL1        0.0000
     42 H           8.2561   10.1645    0.3479 H       1  UNL1        0.0000
@<TRIPOS>BOND
     1    40    15    1
     2    41    15    1
     3    15    42    1
     4    15     4    1
     5    20     8    1
     6    18     7    1
     7    21     8    1
     8     8    19    1
     9     8     1    1
    10    26    10    1
    11    29    11    1
    12    32    12    1
    13     7     4    1
    14     7     2    1
    15     4     5    1
    16     4    14    1
    17    23     9    1
    18    38    14    1
    19    27    10    1
    20    10     2    1
    21    10    25    1
    22    33    12    1
    23    24     9    1
    24     1     9    1
    25     1     6    1
    26     5     3    1
    27    12    31    1
    28    12     3    1
    29    11    28    1
    30    11     2    1
    31    11    30    1
    32     9    22    1
    33    14    37    1
    34    14    39    1
    35     3     6    1
    36     3    13    1
    37    17     6    1
    38     6    16    1
    39    35    13    1
    40    13    36    1
    41    13    34    1
