@<TRIPOS>MOLECULE
3,4,5,6,8
 69 72 0 0 0
SMALL
GASTEIGER

@<TRIPOS>ATOM
      1 SI          5.1061   -2.3169    4.7437 Si      1  UNL1        0.0000
      2 N           4.9970   -1.7243    6.3490 N.2     1  UNL1        0.0000
      3 N           2.0171   -1.0032    3.8071 N.3     1  UNL1        0.0000
      4 C           3.7171    2.6978    4.8259 C.3     1  UNL1        0.0000
      5 C           4.1085    1.5596    5.1233 C.3     1  UNL1        0.0000
      6 C           4.1252    0.1558    5.2394 C.3     1  UNL1        0.0000
      7 C           4.4224   -0.6511    3.9457 C.3     1  UNL1        0.0000
      8 C           3.1588   -1.1203    3.2547 C.3     1  UNL1        0.0000
      9 C           4.5161   -0.5210    6.4370 C.2     1  UNL1        0.0000
     10 C           3.7517    4.1064    4.6288 C.ar    1  UNL1        0.0000
     11 C           4.6677    4.6869    3.7466 C.ar    1  UNL1        0.0000
     12 H           5.3668    4.0538    3.2200 H       1  UNL1        0.0000
     13 C           4.6682    6.0524    3.5578 C.ar    1  UNL1        0.0000
     14 H           5.3784    6.4956    2.8744 H       1  UNL1        0.0000
     15 C           3.7711    6.8741    4.2351 C.ar    1  UNL1        0.0000
     16 C           3.7845    8.3535    4.0065 C.3     1  UNL1        0.0000
     17 H           4.7998    8.7417    4.0677 H       1  UNL1        0.0000
     18 H           3.1667    8.8678    4.7381 H       1  UNL1        0.0000
     19 H           3.4012    8.5820    3.0120 H       1  UNL1        0.0000
     20 C           2.8610    6.2897    5.1087 C.ar    1  UNL1        0.0000
     21 H           2.1553    6.9132    5.6385 H       1  UNL1        0.0000
     22 C           2.8398    4.9235    5.3031 C.ar    1  UNL1        0.0000
     23 H           2.1208    4.4738    5.9793 H       1  UNL1        0.0000
     24 C           5.2726    0.2377    3.0907 C.ar    1  UNL1        0.0000
     25 C           4.6937    0.9984    2.0730 C.ar    1  UNL1        0.0000
     26 H           3.6473    0.8536    1.8018 H       1  UNL1        0.0000
     27 C           5.4418    1.9237    1.3669 C.ar    1  UNL1        0.0000
     28 H           4.9692    2.4988    0.5836 H       1  UNL1        0.0000
     29 C           6.7819    2.1359    1.6648 C.ar    1  UNL1        0.0000
     30 C           7.3522    1.3938    2.6930 C.ar    1  UNL1        0.0000
     31 H           8.3896    1.5529    2.9505 H       1  UNL1        0.0000
     32 C           6.6110    0.4671    3.4001 C.ar    1  UNL1        0.0000
     33 H           7.0645   -0.0761    4.2153 H       1  UNL1        0.0000
     34 C           7.5924    3.1344    0.8963 C.3     1  UNL1        0.0000
     35 H           8.1139    2.6392    0.0765 H       1  UNL1        0.0000
     36 H           8.3396    3.6010    1.5346 H       1  UNL1        0.0000
     37 H           6.9554    3.9069    0.4716 H       1  UNL1        0.0000
     38 C           4.4989    0.1561    7.7971 C.3     1  UNL1        0.0000
     39 C           3.1571    0.8418    8.0734 C.3     1  UNL1        0.0000
     40 H           3.1711    1.2744    9.0723 H       1  UNL1        0.0000
     41 H           2.3486    0.1103    8.0329 H       1  UNL1        0.0000
     42 H           2.9493    1.6483    7.3611 H       1  UNL1        0.0000
     43 C           5.6356    1.1887    7.8217 C.3     1  UNL1        0.0000
     44 H           5.6769    1.6719    8.7953 H       1  UNL1        0.0000
     45 H           5.4876    1.9541    7.0611 H       1  UNL1        0.0000
     46 H           6.5879    0.6971    7.6381 H       1  UNL1        0.0000
     47 C           4.7465   -0.8917    8.8849 C.3     1  UNL1        0.0000
     48 H           3.9537   -1.6337    8.8739 H       1  UNL1        0.0000
     49 H           4.7776   -0.4171    9.8628 H       1  UNL1        0.0000
     50 H           5.6859   -1.4034    8.7035 H       1  UNL1        0.0000
     51 C           6.8750   -2.8192    4.2403 C.3     1  UNL1        0.0000
     52 H           7.5850   -2.5057    4.9964 H       1  UNL1        0.0000
     53 H           7.2057   -2.4249    3.2859 H       1  UNL1        0.0000
     54 H           6.9184   -3.8997    4.1852 H       1  UNL1        0.0000
     55 C           3.9221   -3.7732    4.4426 C.3     1  UNL1        0.0000
     56 H           4.1323   -4.5549    5.1647 H       1  UNL1        0.0000
     57 H           4.0380   -4.1980    3.4507 H       1  UNL1        0.0000
     58 H           2.8841   -3.4777    4.5665 H       1  UNL1        0.0000
     59 C           3.2812   -1.8240    1.9508 C.ar    1  UNL1        0.0000
     60 C           2.0989   -2.1391    1.2781 C.ar    1  UNL1        0.0000
     61 H           1.1570   -1.8740    1.7425 H       1  UNL1        0.0000
     62 C           2.1314   -2.7810    0.0561 C.ar    1  UNL1        0.0000
     63 H           1.2081   -3.0213   -0.4496 H       1  UNL1        0.0000
     64 C           3.3473   -3.1159   -0.5178 C.ar    1  UNL1        0.0000
     65 H           3.3765   -3.6180   -1.4734 H       1  UNL1        0.0000
     66 C           4.5262   -2.8051    0.1400 C.ar    1  UNL1        0.0000
     67 H           5.4762   -3.0650   -0.3038 H       1  UNL1        0.0000
     68 C           4.4983   -2.1631    1.3642 C.ar    1  UNL1        0.0000
     69 H           5.4284   -1.9292    1.8564 H       1  UNL1        0.0000
@<TRIPOS>BOND
     1    65    64    1
     2    64    62   ar
     3    64    66   ar
     4    63    62    1
     5    67    66    1
     6    62    60   ar
     7    35    34    1
     8    66    68   ar
     9    37    34    1
    10    28    27    1
    11    34    36    1
    12    34    29    1
    13    60    61    1
    14    60    59   ar
    15    68    69    1
    16    68    59   ar
    17    27    29   ar
    18    27    25   ar
    19    29    30   ar
    20    26    25    1
    21    59     8    1
    22    25    24   ar
    23    30    31    1
    24    30    32   ar
    25    14    13    1
    26    19    16    1
    27    24    32   ar
    28    24     7    1
    29    12    11    1
    30     8     3    1
    31     8     7    1
    32    53    51    1
    33    32    33    1
    34    57    55    1
    35    13    11   ar
    36    13    15   ar
    37    11    10   ar
    38     7     1    1
    39     7     6    1
    40    16    17    1
    41    16    15    1
    42    16    18    1
    43    54    51    1
    44    15    20   ar
    45    51     1    1
    46    51    52    1
    47    55    58    1
    48    55     1    1
    49    55    56    1
    50    10     4    1
    51    10    22   ar
    52     1     2    1
    53     4     5    1
    54    20    22   ar
    55    20    21    1
    56     5     6    1
    57     6     9    1
    58    22    23    1
    59     2     9    2
    60     9    38    1
    61    45    43    1
    62    42    39    1
    63    46    43    1
    64    38    43    1
    65    38    39    1
    66    38    47    1
    67    43    44    1
    68    41    39    1
    69    39    40    1
    70    50    47    1
    71    48    47    1
    72    47    49    1
