@<TRIPOS>MOLECULE
2,3,4,5,6
 38 39 0 0 0
SMALL
GASTEIGER

@<TRIPOS>ATOM
      1 SI         -0.6461    3.4341    2.3747 Si      1  UNL1        0.0000
      2 N           0.1737    2.2658    3.3740 N.3     1  UNL1        0.0000
      3 C           1.4020    2.7403    0.3843 C.ar    1  UNL1        0.0000
      4 C           0.8786    3.7131    1.2952 C.3     1  UNL1        0.0000
      5 C           2.0032    4.4063    1.8124 C.2     1  UNL1        0.0000
      6 C           3.1908    3.9058    1.2631 C.2     1  UNL1        0.0000
      7 C           2.8399    2.8767    0.3481 C.ar    1  UNL1        0.0000
      8 C           3.5967    2.1003   -0.5456 C.ar    1  UNL1        0.0000
      9 C           2.9512    1.1987   -1.3558 C.ar    1  UNL1        0.0000
     10 C           1.5548    1.0454   -1.3064 C.ar    1  UNL1        0.0000
     11 C           0.7814    1.7976   -0.4554 C.ar    1  UNL1        0.0000
     12 C          -1.1532    5.0804    3.2283 C.3     1  UNL1        0.0000
     13 C          -2.1863    2.7918    1.4271 C.3     1  UNL1        0.0000
     14 C          -0.3074    1.7390    4.6370 C.3     1  UNL1        0.0000
     15 C           0.3190    0.3595    4.9028 C.3     1  UNL1        0.0000
     16 C           0.0890    2.6999    5.7735 C.3     1  UNL1        0.0000
     17 C          -1.8339    1.5724    4.6303 C.3     1  UNL1        0.0000
     18 H           1.9413    5.2609    2.4810 H       1  UNL1        0.0000
     19 H           4.1812    4.3256    1.3888 H       1  UNL1        0.0000
     20 H           4.6707    2.2290   -0.6035 H       1  UNL1        0.0000
     21 H           3.5181    0.5996   -2.0543 H       1  UNL1        0.0000
     22 H           1.0875    0.3270   -1.9653 H       1  UNL1        0.0000
     23 H          -0.2970    1.7009   -0.4598 H       1  UNL1        0.0000
     24 H          -0.3509    5.4804    3.8419 H       1  UNL1        0.0000
     25 H          -2.0206    4.9435    3.8661 H       1  UNL1        0.0000
     26 H          -1.4117    5.8327    2.4900 H       1  UNL1        0.0000
     27 H          -3.0902    2.9409    2.0082 H       1  UNL1        0.0000
     28 H          -2.1076    1.7316    1.2053 H       1  UNL1        0.0000
     29 H          -2.3123    3.3221    0.4886 H       1  UNL1        0.0000
     30 H          -0.0780   -0.0615    5.8248 H       1  UNL1        0.0000
     31 H           1.4030    0.4515    4.9913 H       1  UNL1        0.0000
     32 H           0.0832   -0.3139    4.0788 H       1  UNL1        0.0000
     33 H          -0.1759    2.2806    6.7416 H       1  UNL1        0.0000
     34 H          -0.4250    3.6498    5.6498 H       1  UNL1        0.0000
     35 H           1.1650    2.8764    5.7401 H       1  UNL1        0.0000
     36 H          -2.3211    2.5360    4.5167 H       1  UNL1        0.0000
     37 H          -2.1676    1.1228    5.5626 H       1  UNL1        0.0000
     38 H          -2.1309    0.9322    3.8041 H       1  UNL1        0.0000
@<TRIPOS>BOND
     1    21     9    1
     2    22    10    1
     3     9    10   ar
     4     9     8   ar
     5    10    11   ar
     6    20     8    1
     7     8     7   ar
     8    23    11    1
     9    11     3   ar
    10     7     3   ar
    11     7     6    1
    12     3     4    1
    13    29    13    1
    14    28    13    1
    15     6    19    1
    16     6     5    2
    17     4     5    1
    18     4     1    1
    19    13    27    1
    20    13     1    1
    21     5    18    1
    22     1    12    1
    23     1     2    1
    24    26    12    1
    25    12    24    1
    26    12    25    1
    27     2    14    1
    28    38    17    1
    29    32    15    1
    30    36    17    1
    31    17    14    1
    32    17    37    1
    33    14    15    1
    34    14    16    1
    35    15    31    1
    36    15    30    1
    37    34    16    1
    38    35    16    1
    39    16    33    1
