@<TRIPOS>MOLECULE
1,2,3,5,28
 36 36 0 0 0
SMALL
GASTEIGER

@<TRIPOS>ATOM
      1 C          13.4859   13.6579   -3.3910 C.3     1  UNL1        0.0095
      2 C          12.8198   12.6395   -4.1521 C.3     1  UNL1       -0.0050
      3 C          11.5253   12.4497   -3.5669 C.3     1  UNL1        0.0053
      4 C          11.3989   13.3487   -2.4773 C.2     1  UNL1       -0.0658
      5 C          12.5993   14.0907   -2.3693 C.2     1  UNL1       -0.0655
      6 C          13.4615   11.6157   -5.0552 C.3     1  UNL1       -0.0574
      7 H          14.4583   11.9168   -5.3717 H       1  UNL1        0.0236
      8 H          12.8616   11.4260   -5.9445 H       1  UNL1        0.0236
      9 H          13.5629   10.6700   -4.5163 H       1  UNL1        0.0236
     10 C          10.6357   11.2699   -3.8549 C.3     1  UNL1       -0.0545
     11 H           9.6475   11.4035   -3.4193 H       1  UNL1        0.0239
     12 H          11.0696   10.3655   -3.4206 H       1  UNL1        0.0239
     13 H          10.5221   11.1000   -4.9258 H       1  UNL1        0.0239
     14 C          10.2688   13.4328   -1.4934 C.3     1  UNL1       -0.0430
     15 H           9.3624   12.9789   -1.8874 H       1  UNL1        0.0275
     16 H          10.0526   14.4720   -1.2510 H       1  UNL1        0.0275
     17 H          10.5320   12.9147   -0.5684 H       1  UNL1        0.0275
     18 C          12.9092   15.0092   -1.2224 C.3     1  UNL1       -0.0429
     19 H          12.8481   14.4559   -0.2833 H       1  UNL1        0.0275
     20 H          12.1961   15.8313   -1.1715 H       1  UNL1        0.0275
     21 H          13.9104   15.4249   -1.3032 H       1  UNL1        0.0275
     22 C          14.8940   14.1521   -3.5914 C.3     1  UNL1       -0.0295
     23 H          15.4464   13.4629   -4.2328 H       1  UNL1        0.0286
     24 H          15.4177   14.1792   -2.6313 H       1  UNL1        0.0286
     25 C          14.9358   15.5735   -4.1806 C.3     1  UNL1       -0.0009
     26 H          14.5872   16.2767   -3.4185 H       1  UNL1        0.0427
     27 H          15.9760   15.8312   -4.4411 H       1  UNL1        0.0427
     28 N          14.0660   15.7468   -5.3596 N.3     1  UNL1       -0.3083
     29 C          14.0564   17.1711   -5.7143 C.3     1  UNL1       -0.0131
     30 H          15.0780   17.5319   -5.9051 H       1  UNL1        0.0391
     31 H          13.6209   17.7578   -4.9068 H       1  UNL1        0.0391
     32 H          13.4614   17.3187   -6.6140 H       1  UNL1        0.0391
     33 C          14.6236   15.0143   -6.5042 C.3     1  UNL1       -0.0131
     34 H          13.9678   15.1383   -7.3657 H       1  UNL1        0.0391
     35 H          14.6920   13.9533   -6.2771 H       1  UNL1        0.0391
     36 H          15.6272   15.3872   -6.7566 H       1  UNL1        0.0391
@<TRIPOS>BOND
     1    34    33    1
     2    36    33    1
     3    32    29    1
     4    33    35    1
     5    33    28    1
     6     8     6    1
     7    30    29    1
     8    29    28    1
     9    29    31    1
    10     7     6    1
    11    28    25    1
    12     6     9    1
    13     6     2    1
    14    13    10    1
    15    27    25    1
    16    23    22    1
    17    25    22    1
    18    25    26    1
    19     2     3    1
    20     2     1    1
    21    10     3    1
    22    10    12    1
    23    10    11    1
    24    22     1    1
    25    22    24    1
    26     3     4    1
    27     1     5    1
    28     4     5    2
    29     4    14    1
    30     5    18    1
    31    15    14    1
    32    14    16    1
    33    14    17    1
    34    21    18    1
    35    18    20    1
    36    18    19    1
