@<TRIPOS>MOLECULE
1,2,6,24
 48 48 0 0 0
SMALL
GASTEIGER

@<TRIPOS>ATOM
      1 P           3.2401    3.8837    9.4858 P.3     1  UNL1        0.0000
      2 P           4.0412    4.9623    7.8635 P.3     1  UNL1        0.0000
      3 SI          1.1411    6.0910    8.4149 Si      1  UNL1        0.0000
      4 SI          2.8158    6.5164    5.6294 Si      1  UNL1        0.0000
      5 O           0.5286    4.2493    5.9257 O.2     1  UNL1        0.0000
      6 C           1.5742    4.1542    6.4962 C.2     1  UNL1        0.0000
      7 C           4.8021    3.0211   10.0636 C.3     1  UNL1        0.0000
      8 H           5.5712    3.0946    9.2799 H       1  UNL1        0.0000
      9 C           4.5112    1.5520   10.3606 C.3     1  UNL1        0.0000
     10 H           3.7046    1.4918   11.0971 H       1  UNL1        0.0000
     11 H           4.1664    1.0501    9.4502 H       1  UNL1        0.0000
     12 C           5.7555    0.8597   10.9082 C.3     1  UNL1        0.0000
     13 H           5.5305   -0.1860   11.1285 H       1  UNL1        0.0000
     14 H           6.5452    0.8802   10.1522 H       1  UNL1        0.0000
     15 C           6.2463    1.5650   12.1693 C.3     1  UNL1        0.0000
     16 H           7.1459    1.0730   12.5453 H       1  UNL1        0.0000
     17 H           5.4780    1.4959   12.9427 H       1  UNL1        0.0000
     18 C           6.5394    3.0341   11.8787 C.3     1  UNL1        0.0000
     19 H           7.3484    3.1052   11.1472 H       1  UNL1        0.0000
     20 H           6.8681    3.5370   12.7906 H       1  UNL1        0.0000
     21 C           5.2977    3.7271   11.3253 C.3     1  UNL1        0.0000
     22 H           5.5185    4.7735   11.0961 H       1  UNL1        0.0000
     23 H           4.5014    3.7105   12.0757 H       1  UNL1        0.0000
     24 C           2.3670    5.3090    7.0993 C.3     1  UNL1        0.0000
     25 C          -0.0115    4.8391    9.2794 C.3     1  UNL1        0.0000
     26 H           0.4909    4.2416   10.0344 H       1  UNL1        0.0000
     27 H          -0.4579    4.1601    8.5581 H       1  UNL1        0.0000
     28 H          -0.8217    5.3732    9.7673 H       1  UNL1        0.0000
     29 C           2.1526    7.0960    9.6909 C.3     1  UNL1        0.0000
     30 H           2.2372    6.5521   10.6268 H       1  UNL1        0.0000
     31 H           1.6650    8.0418    9.9019 H       1  UNL1        0.0000
     32 H           3.1610    7.3064    9.3454 H       1  UNL1        0.0000
     33 C          -0.0478    7.2442    7.4660 C.3     1  UNL1        0.0000
     34 H          -0.8004    7.6093    8.1564 H       1  UNL1        0.0000
     35 H          -0.5607    6.7082    6.6757 H       1  UNL1        0.0000
     36 H           0.4395    8.1068    7.0288 H       1  UNL1        0.0000
     37 C           3.4245    8.1413    6.4283 C.3     1  UNL1        0.0000
     38 H           3.6724    8.8542    5.6494 H       1  UNL1        0.0000
     39 H           4.3214    7.9740    7.0173 H       1  UNL1        0.0000
     40 H           2.6859    8.6006    7.0742 H       1  UNL1        0.0000
     41 C           4.2971    5.8602    4.6156 C.3     1  UNL1        0.0000
     42 H           4.0312    5.0137    3.9913 H       1  UNL1        0.0000
     43 H           5.1246    5.5704    5.2575 H       1  UNL1        0.0000
     44 H           4.6590    6.6444    3.9576 H       1  UNL1        0.0000
     45 C           1.3802    6.8090    4.4097 C.3     1  UNL1        0.0000
     46 H           1.7655    6.9068    3.3997 H       1  UNL1        0.0000
     47 H           0.8370    7.7177    4.6407 H       1  UNL1        0.0000
     48 H           0.6709    5.9882    4.4167 H       1  UNL1        0.0000
@<TRIPOS>BOND
     1    46    45    1
     2    44    41    1
     3    42    41    1
     4    45    48    1
     5    45    47    1
     6    45     4    1
     7    41    43    1
     8    41     4    1
     9     4    37    1
    10     4    24    1
    11    38    37    1
    12     5     6    2
    13    37    39    1
    14    37    40    1
    15     6    24    1
    16    35    33    1
    17    36    33    1
    18    24     2    1
    19    24     3    1
    20    33    34    1
    21    33     3    1
    22     2     1    1
    23     3    25    1
    24     3    29    1
    25    27    25    1
    26    25    28    1
    27    25    26    1
    28     8     7    1
    29    32    29    1
    30    11     9    1
    31     1     7    1
    32    29    31    1
    33    29    30    1
    34     7     9    1
    35     7    21    1
    36    14    12    1
    37     9    12    1
    38     9    10    1
    39    12    13    1
    40    12    15    1
    41    22    21    1
    42    19    18    1
    43    21    18    1
    44    21    23    1
    45    18    15    1
    46    18    20    1
    47    15    16    1
    48    15    17    1
