@<TRIPOS>MOLECULE
1,2,3,14
 30 30 0 0 0
SMALL
GASTEIGER

@<TRIPOS>ATOM
      1 P           6.4821   14.2440    8.0269 P.3     1  UNL1       -0.0529
      2 P           6.4840   11.6304    8.9514 P.3     1  UNL1       -0.0529
      3 C           5.4029   13.0881    8.9175 C.3     1  UNL1        0.0400
      4 C           8.8778   12.5948    7.5207 C.3     1  UNL1       -0.0224
      5 C           4.4041   13.4626    9.9811 C.3     1  UNL1       -0.0224
      6 C           9.1950   13.5185    6.3451 C.3     1  UNL1       -0.0588
      7 H           8.6024   13.2355    5.4800 H       1  UNL1        0.0235
      8 H          10.2489   13.4550    6.0812 H       1  UNL1        0.0235
      9 H           8.9592   14.5499    6.6100 H       1  UNL1        0.0235
     10 C           3.5388   12.2684   10.3793 C.3     1  UNL1       -0.0588
     11 H           2.8969   11.9733    9.5516 H       1  UNL1        0.0235
     12 H           2.9120   12.5220   11.2316 H       1  UNL1        0.0235
     13 H           4.1711   11.4233   10.6494 H       1  UNL1        0.0235
     14 C           7.4439   12.7415    7.9349 C.3     1  UNL1        0.0400
     15 C           9.7128   13.0184    8.7401 C.3     1  UNL1       -0.0588
     16 H          10.7740   12.9401    8.5123 H       1  UNL1        0.0235
     17 H           9.4873   12.3786    9.5921 H       1  UNL1        0.0235
     18 H           9.4862   14.0480    9.0132 H       1  UNL1        0.0235
     19 C           3.5301   14.6349    9.5395 C.3     1  UNL1       -0.0588
     20 H           4.1562   15.4652    9.2147 H       1  UNL1        0.0235
     21 H           2.9035   14.9714   10.3628 H       1  UNL1        0.0235
     22 H           2.8877   14.3380    8.7130 H       1  UNL1        0.0235
     23 C           5.2398   13.8973   11.1972 C.3     1  UNL1       -0.0588
     24 H           5.8780   13.0790   11.5272 H       1  UNL1        0.0235
     25 H           4.5872   14.1873   12.0182 H       1  UNL1        0.0235
     26 H           5.8730   14.7437   10.9354 H       1  UNL1        0.0235
     27 C           9.1917   11.1395    7.1746 C.3     1  UNL1       -0.0588
     28 H           8.6032   10.8263    6.3173 H       1  UNL1        0.0235
     29 H           8.9488   10.4965    8.0214 H       1  UNL1        0.0235
     30 H          10.2467   11.0219    6.9346 H       1  UNL1        0.0235
@<TRIPOS>BOND
     1     7     6    1
     2     8     6    1
     3    28    27    1
     4     6     9    1
     5     6     4    1
     6    30    27    1
     7    27     4    1
     8    27    29    1
     9     4    14    1
    10     4    15    1
    11    14     1    1
    12    14     2    1
    13     1     3    1
    14    16    15    1
    15    22    19    1
    16    15    18    1
    17    15    17    1
    18     3     2    1
    19     3     5    1
    20    20    19    1
    21    19     5    1
    22    19    21    1
    23    11    10    1
    24     5    10    1
    25     5    23    1
    26    10    13    1
    27    10    12    1
    28    26    23    1
    29    23    24    1
    30    23    25    1
