@<TRIPOS>MOLECULE
1,2,84,85
 98 99 0 0 0
SMALL
GASTEIGER

@<TRIPOS>ATOM
      1 P           6.3711    8.6198    9.4301 P.3     1  UNL1        0.0000
      2 P           3.6837    5.5201   11.4524 P.3     1  UNL1        0.0000
      3 SI          6.6609    5.9889   13.0138 Si      1  UNL1        0.0000
      4 SI          7.9751    3.0937   12.1533 Si      1  UNL1        0.0000
      5 C           7.6024    9.1494   10.6636 C.ar    1  UNL1        0.0000
      6 C           7.4465    8.5934   11.9436 C.ar    1  UNL1        0.0000
      7 C           8.3718    8.9380   12.9278 C.ar    1  UNL1        0.0000
      8 H           8.2508    8.5525   13.9266 H       1  UNL1        0.0000
      9 C           9.4289    9.7827   12.6516 C.ar    1  UNL1        0.0000
     10 H          10.1303   10.0379   13.4329 H       1  UNL1        0.0000
     11 C           9.5937   10.3014   11.3769 C.ar    1  UNL1        0.0000
     12 H          10.4280   10.9508   11.1561 H       1  UNL1        0.0000
     13 C           8.6825    9.9820   10.3889 C.ar    1  UNL1        0.0000
     14 H           8.8231   10.3808    9.3959 H       1  UNL1        0.0000
     15 C           8.0124    6.0525   14.3685 C.3     1  UNL1        0.0000
     16 H           8.9523    6.3780   13.9387 H       1  UNL1        0.0000
     17 H           8.1761    5.0575   14.7657 H       1  UNL1        0.0000
     18 H           7.7792    6.7079   15.2010 H       1  UNL1        0.0000
     19 C           5.0785    5.3460   13.8712 C.ar    1  UNL1        0.0000
     20 C           3.8174    5.2359   13.2612 C.ar    1  UNL1        0.0000
     21 C           2.7165    4.8851   14.0388 C.ar    1  UNL1        0.0000
     22 H           1.7308    4.8245   13.6064 H       1  UNL1        0.0000
     23 C           2.8375    4.6047   15.3875 C.ar    1  UNL1        0.0000
     24 H           1.9632    4.3328   15.9614 H       1  UNL1        0.0000
     25 C           4.0812    4.6671   15.9851 C.ar    1  UNL1        0.0000
     26 H           4.1980    4.4377   17.0341 H       1  UNL1        0.0000
     27 C           5.1739    5.0434   15.2276 C.ar    1  UNL1        0.0000
     28 H           6.1327    5.1088   15.7140 H       1  UNL1        0.0000
     29 C           5.6118   10.1206    8.6105 C.3     1  UNL1        0.0000
     30 H           5.1079    9.6953    7.7311 H       1  UNL1        0.0000
     31 C           4.5346   10.6459    9.5545 C.3     1  UNL1        0.0000
     32 H           4.9897   11.1032   10.4328 H       1  UNL1        0.0000
     33 H           3.8998    9.8122    9.8779 H       1  UNL1        0.0000
     34 H           3.9093   11.3892    9.0617 H       1  UNL1        0.0000
     35 C           6.5466   11.2372    8.1651 C.3     1  UNL1        0.0000
     36 H           5.9772   11.9863    7.6148 H       1  UNL1        0.0000
     37 H           7.3331   10.8683    7.5100 H       1  UNL1        0.0000
     38 H           6.9986   11.7257    9.0260 H       1  UNL1        0.0000
     39 C           7.5078    7.9786    8.0856 C.3     1  UNL1        0.0000
     40 H           8.3122    8.7174    7.9737 H       1  UNL1        0.0000
     41 C           8.1058    6.6716    8.5951 C.3     1  UNL1        0.0000
     42 H           7.3141    5.9344    8.7261 H       1  UNL1        0.0000
     43 H           8.5998    6.8267    9.5538 H       1  UNL1        0.0000
     44 H           8.8324    6.2742    7.8878 H       1  UNL1        0.0000
     45 C           6.8205    7.7706    6.7411 C.3     1  UNL1        0.0000
     46 H           7.4952    7.2492    6.0624 H       1  UNL1        0.0000
     47 H           6.5453    8.7164    6.2795 H       1  UNL1        0.0000
     48 H           5.9224    7.1673    6.8584 H       1  UNL1        0.0000
     49 C           1.8318    5.4586   11.1321 C.3     1  UNL1        0.0000
     50 H           1.3878    4.6692   11.7482 H       1  UNL1        0.0000
     51 C           1.2955    6.8242   11.5509 C.3     1  UNL1        0.0000
     52 H           1.8070    7.5967   10.9693 H       1  UNL1        0.0000
     53 H           1.4764    7.0025   12.6107 H       1  UNL1        0.0000
     54 H           0.2252    6.9030   11.3643 H       1  UNL1        0.0000
     55 C           1.4432    5.1820    9.6815 C.3     1  UNL1        0.0000
     56 H           0.3709    5.3418    9.5645 H       1  UNL1        0.0000
     57 H           1.6561    4.1563    9.3928 H       1  UNL1        0.0000
     58 H           1.9619    5.8518    9.0013 H       1  UNL1        0.0000
     59 C           4.2713    3.8144   10.9278 C.3     1  UNL1        0.0000
     60 H           5.2104    3.7041   11.4813 H       1  UNL1        0.0000
     61 C           3.3556    2.6734   11.3604 C.3     1  UNL1        0.0000
     62 H           2.4245    2.6639   10.8003 H       1  UNL1        0.0000
     63 H           3.1244    2.7424   12.4224 H       1  UNL1        0.0000
     64 H           3.8591    1.7231   11.1856 H       1  UNL1        0.0000
     65 C           4.5916    3.7633    9.4376 C.3     1  UNL1        0.0000
     66 H           5.1766    2.8753    9.2038 H       1  UNL1        0.0000
     67 H           5.1661    4.6435    9.1456 H       1  UNL1        0.0000
     68 H           3.6903    3.7475    8.8319 H       1  UNL1        0.0000
     69 C           7.4877    4.8859   11.6813 C.3     1  UNL1        0.0000
     70 H           8.4088    5.4016   11.4090 H       1  UNL1        0.0000
     71 H           6.8775    4.8892   10.7812 H       1  UNL1        0.0000
     72 C           9.8012    3.0884   12.7101 C.3     1  UNL1        0.0000
     73 H          10.1093    2.1025   13.0449 H       1  UNL1        0.0000
     74 H           9.9702    3.7798   13.5290 H       1  UNL1        0.0000
     75 H          10.4613    3.3778   11.8980 H       1  UNL1        0.0000
     76 C           7.8146    1.9588   10.6235 C.3     1  UNL1        0.0000
     77 H           8.3776    1.0405   10.7599 H       1  UNL1        0.0000
     78 H           8.1905    2.4415    9.7267 H       1  UNL1        0.0000
     79 H           6.7824    1.6791   10.4385 H       1  UNL1        0.0000
     80 C           6.9069    2.3633   13.5572 C.3     1  UNL1        0.0000
     81 H           5.8442    2.4798   13.3714 H       1  UNL1        0.0000
     82 H           7.1185    2.8426   14.5070 H       1  UNL1        0.0000
     83 H           7.1026    1.3018   13.6779 H       1  UNL1        0.0000
     84 C           6.3072    7.6917   12.2377 C.3     1  UNL1        0.0000
     85 C           5.0253    8.2581   12.3398 C.3     1  UNL1        0.0000
     86 C           4.4694    9.2205   13.3392 C.3     1  UNL1        0.0000
     87 C           4.3527    8.5045   14.6945 C.3     1  UNL1        0.0000
     88 H           3.6425    7.6831   14.6347 H       1  UNL1        0.0000
     89 H           4.0101    9.2059   15.4533 H       1  UNL1        0.0000
     90 H           5.3159    8.1012   14.9993 H       1  UNL1        0.0000
     91 C           3.0884    9.7485   12.9377 C.3     1  UNL1        0.0000
     92 H           3.1395   10.2866   11.9957 H       1  UNL1        0.0000
     93 H           2.7135   10.4285   13.7010 H       1  UNL1        0.0000
     94 H           2.3847    8.9300   12.8336 H       1  UNL1        0.0000
     95 C           5.4247   10.4156   13.5014 C.3     1  UNL1        0.0000
     96 H           6.3596   10.1076   13.9595 H       1  UNL1        0.0000
     97 H           4.9603   11.1708   14.1332 H       1  UNL1        0.0000
     98 H           5.6511   10.8635   12.5362 H       1  UNL1        0.0000
@<TRIPOS>BOND
     1    46    45    1
     2    47    45    1
     3    45    48    1
     4    45    39    1
     5    37    35    1
     6    36    35    1
     7    30    29    1
     8    44    41    1
     9    40    39    1
    10    39    41    1
    11    39     1    1
    12    35    29    1
    13    35    38    1
    14    41    42    1
    15    41    43    1
    16    29     1    1
    17    29    31    1
    18    68    65    1
    19    58    55    1
    20    34    31    1
    21    67    65    1
    22    66    65    1
    23    57    55    1
    24    14    13    1
    25     1     5    1
    26    65    59    1
    27    31    33    1
    28    31    32    1
    29    56    55    1
    30    55    49    1
    31    78    76    1
    32    13     5   ar
    33    13    11   ar
    34    79    76    1
    35    76    77    1
    36    76     4    1
    37     5     6   ar
    38    71    69    1
    39    62    61    1
    40    59    61    1
    41    59     2    1
    42    59    60    1
    43    52    51    1
    44    49     2    1
    45    49    51    1
    46    49    50    1
    47    12    11    1
    48    64    61    1
    49    61    63    1
    50    54    51    1
    51    11     9   ar
    52    70    69    1
    53     2    20    1
    54    51    53    1
    55    69     4    1
    56    69     3    1
    57    75    72    1
    58     6    84    1
    59     6     7   ar
    60    92    91    1
    61     4    72    1
    62     4    80    1
    63    84    85    1
    64    84     3    1
    65    85    86    1
    66    98    95    1
    67     9     7   ar
    68     9    10    1
    69    72    73    1
    70    72    74    1
    71    94    91    1
    72     7     8    1
    73    91    86    1
    74    91    93    1
    75     3    19    1
    76     3    15    1
    77    20    19   ar
    78    20    21   ar
    79    86    95    1
    80    86    87    1
    81    81    80    1
    82    95    96    1
    83    95    97    1
    84    80    83    1
    85    80    82    1
    86    22    21    1
    87    19    27   ar
    88    16    15    1
    89    21    23   ar
    90    15    17    1
    91    15    18    1
    92    88    87    1
    93    87    90    1
    94    87    89    1
    95    27    28    1
    96    27    25   ar
    97    23    24    1
    98    23    25   ar
    99    25    26    1
