@<TRIPOS>MOLECULE
1,2,13,52
 81 84 0 0 0
SMALL
GASTEIGER

@<TRIPOS>ATOM
      1 P           0.6632    1.6884    5.9622 P.3     1  UNL1        0.0000
      2 P           3.6653    4.7758    8.3113 P.3     1  UNL1        0.0000
      3 SI          6.5562   -0.0007    5.6437 Si      1  UNL1        0.0000
      4 O           6.4986    1.0714    6.9201 O.2     1  UNL1        0.0000
      5 O           4.9701   -0.4903    5.7954 O.2     1  UNL1        0.0000
      6 C           4.8027    1.9412    8.4305 C.2     1  UNL1        0.0000
      7 C           0.6512    1.8819    4.0942 C.3     1  UNL1        0.0000
      8 H          -0.3212    1.5057    3.7448 H       1  UNL1        0.0000
      9 C           5.9843    5.1771    9.8825 C.ar    1  UNL1        0.0000
     10 H           5.6482    6.1938   10.0169 H       1  UNL1        0.0000
     11 C           4.4481    5.8973    7.0188 C.3     1  UNL1        0.0000
     12 H           3.7064    5.8845    6.2077 H       1  UNL1        0.0000
     13 C           2.5670    0.9809    8.1784 C.3     1  UNL1        0.0000
     14 H           1.6389    0.6804    8.6602 H       1  UNL1        0.0000
     15 C           7.2134    4.8134   10.4008 C.ar    1  UNL1        0.0000
     16 H           7.8095    5.5434   10.9293 H       1  UNL1        0.0000
     17 C          -1.1647    1.7700    6.3399 C.3     1  UNL1        0.0000
     18 H          -1.6987    1.2592    5.5280 H       1  UNL1        0.0000
     19 C           5.2414    1.1087    7.4352 C.2     1  UNL1        0.0000
     20 C           2.0737   -0.7072    6.4306 C.ar    1  UNL1        0.0000
     21 C           3.0389    0.1437    7.1297 C.2     1  UNL1        0.0000
     22 C          -1.6641    3.2078    6.3986 C.3     1  UNL1        0.0000
     23 H          -1.0579    3.7988    7.0829 H       1  UNL1        0.0000
     24 H          -2.6961    3.2288    6.7472 H       1  UNL1        0.0000
     25 H          -1.6300    3.6779    5.4187 H       1  UNL1        0.0000
     26 C           0.7871    3.3400    3.6742 C.3     1  UNL1        0.0000
     27 H           0.0277    3.9657    4.1352 H       1  UNL1        0.0000
     28 H           0.6859    3.4241    2.5923 H       1  UNL1        0.0000
     29 H           1.7658    3.7246    3.9566 H       1  UNL1        0.0000
     30 C          -1.4555    1.0409    7.6497 C.3     1  UNL1        0.0000
     31 H          -1.1230    0.0044    7.6064 H       1  UNL1        0.0000
     32 H          -2.5260    1.0482    7.8510 H       1  UNL1        0.0000
     33 H          -0.9566    1.5295    8.4820 H       1  UNL1        0.0000
     34 C           6.8867    0.8657    3.9944 C.3     1  UNL1        0.0000
     35 H           6.2006    1.6897    3.8201 H       1  UNL1        0.0000
     36 H           6.7859    0.1663    3.1711 H       1  UNL1        0.0000
     37 H           7.8970    1.2599    3.9676 H       1  UNL1        0.0000
     38 C           2.7053    5.2532   10.8801 C.3     1  UNL1        0.0000
     39 H           1.9999    4.4350   10.7573 H       1  UNL1        0.0000
     40 H           2.2857    5.9502   11.6044 H       1  UNL1        0.0000
     41 H           3.6332    4.8522   11.2867 H       1  UNL1        0.0000
     42 C           4.3630    0.2125    6.7883 C.2     1  UNL1        0.0000
     43 C           6.9077    2.5926    9.5686 C.ar    1  UNL1        0.0000
     44 H           7.2570    1.5800    9.4347 H       1  UNL1        0.0000
     45 C          -0.0386   -0.9765    5.3293 C.ar    1  UNL1        0.0000
     46 H          -0.9602   -0.5727    4.9377 H       1  UNL1        0.0000
     47 C           5.1846    4.2561    9.2088 C.ar    1  UNL1        0.0000
     48 C           2.9484    5.9641    9.5517 C.3     1  UNL1        0.0000
     49 H           3.6807    6.7633    9.7128 H       1  UNL1        0.0000
     50 C           0.2040   -2.3293    5.1841 C.ar    1  UNL1        0.0000
     51 H          -0.5329   -2.9575    4.7048 H       1  UNL1        0.0000
     52 C           3.4357    1.8641    8.8194 C.3     1  UNL1        0.0000
     53 H           3.1887    2.2538    9.8044 H       1  UNL1        0.0000
     54 C           2.3286   -2.0634    6.2482 C.ar    1  UNL1        0.0000
     55 H           3.2635   -2.4706    6.6026 H       1  UNL1        0.0000
     56 C           7.7431   -1.4287    6.0153 C.3     1  UNL1        0.0000
     57 H           8.7662   -1.0706    6.0375 H       1  UNL1        0.0000
     58 H           7.6788   -2.1815    5.2378 H       1  UNL1        0.0000
     59 H           7.5363   -1.9111    6.9665 H       1  UNL1        0.0000
     60 C           7.6864    3.5224   10.2281 C.ar    1  UNL1        0.0000
     61 H           8.6556    3.2431   10.6143 H       1  UNL1        0.0000
     62 C           4.7261    7.3530    7.3873 C.3     1  UNL1        0.0000
     63 H           3.8251    7.8808    7.6870 H       1  UNL1        0.0000
     64 H           5.1303    7.8593    6.5110 H       1  UNL1        0.0000
     65 H           5.4677    7.4295    8.1791 H       1  UNL1        0.0000
     66 C           1.3973   -2.8744    5.6318 C.ar    1  UNL1        0.0000
     67 H           1.5965   -3.9276    5.4996 H       1  UNL1        0.0000
     68 C           1.7605    1.0580    3.4369 C.3     1  UNL1        0.0000
     69 H           2.7200    1.2459    3.9114 H       1  UNL1        0.0000
     70 H           1.8441    1.3329    2.3861 H       1  UNL1        0.0000
     71 H           1.5607   -0.0094    3.4916 H       1  UNL1        0.0000
     72 C           5.6548    2.9428    9.0744 C.ar    1  UNL1        0.0000
     73 C           5.7394    5.2551    6.5065 C.3     1  UNL1        0.0000
     74 H           6.5606    5.4429    7.1964 H       1  UNL1        0.0000
     75 H           6.0056    5.6724    5.5365 H       1  UNL1        0.0000
     76 H           5.6379    4.1777    6.3981 H       1  UNL1        0.0000
     77 C           0.8837   -0.1414    5.9591 C.ar    1  UNL1        0.0000
     78 C           1.6652    6.5896    9.0188 C.3     1  UNL1        0.0000
     79 H           1.8158    7.0244    8.0323 H       1  UNL1        0.0000
     80 H           1.3214    7.3727    9.6940 H       1  UNL1        0.0000
     81 H           0.8784    5.8441    8.9359 H       1  UNL1        0.0000
@<TRIPOS>BOND
     1    70    68    1
     2    28    26    1
     3    36    34    1
     4    68    71    1
     5    68    69    1
     6    68     7    1
     7    26    29    1
     8    26     7    1
     9    26    27    1
    10     8     7    1
    11    35    34    1
    12    37    34    1
    13    34     3    1
    14     7     1    1
    15    51    50    1
    16    46    45    1
    17    50    45   ar
    18    50    66   ar
    19    58    56    1
    20    45    77   ar
    21    25    22    1
    22    67    66    1
    23    18    17    1
    24    75    73    1
    25    66    54   ar
    26     3     5    1
    27     3    56    1
    28     3     4    1
    29     5    42    1
    30    77     1    1
    31    77    20   ar
    32     1    17    1
    33    56    57    1
    34    56    59    1
    35    12    11    1
    36    54    20   ar
    37    54    55    1
    38    17    22    1
    39    17    30    1
    40    76    73    1
    41    22    24    1
    42    22    23    1
    43    20    21    1
    44    73    11    1
    45    73    74    1
    46    64    62    1
    47    42    21    2
    48    42    19    1
    49     4    19    1
    50    11    62    1
    51    11     2    1
    52    21    13    1
    53    62    63    1
    54    62    65    1
    55    19     6    2
    56    31    30    1
    57    30    32    1
    58    30    33    1
    59    79    78    1
    60    13    14    1
    61    13    52    1
    62     2    47    1
    63     2    48    1
    64     6    52    1
    65     6    72    1
    66    52    53    1
    67    81    78    1
    68    78    48    1
    69    78    80    1
    70    72    47   ar
    71    72    43   ar
    72    47     9   ar
    73    44    43    1
    74    48    49    1
    75    48    38    1
    76    43    60   ar
    77     9    10    1
    78     9    15   ar
    79    60    15   ar
    80    60    61    1
    81    15    16    1
    82    39    38    1
    83    38    41    1
    84    38    40    1
