@<TRIPOS>MOLECULE
1,2,4,5
 43 43 0 0 0
SMALL
GASTEIGER

@<TRIPOS>ATOM
      1 P           6.6395    7.9904    9.9990 P.3     1  UNL1        0.0000
      2 P           8.9127    6.7354   10.6817 P.3     1  UNL1        0.0000
      3 SI         10.8776    7.2232   11.8077 Si      1  UNL1        0.0000
      4 C           8.3704    8.0742    9.5499 C.3     1  UNL1        0.0000
      5 C           7.3943    7.3681   11.5093 C.3     1  UNL1        0.0000
      6 C           6.6688    6.6094   12.5926 C.3     1  UNL1        0.0000
      7 C           8.8960    8.3027    8.1552 C.3     1  UNL1        0.0000
      8 C          10.8566    7.4178   13.7229 C.3     1  UNL1        0.0000
      9 H          10.1130    8.1248   14.0768 H       1  UNL1        0.0000
     10 H          11.8296    7.7514   14.0726 H       1  UNL1        0.0000
     11 H          10.6524    6.4636   14.1968 H       1  UNL1        0.0000
     12 C           7.6261    6.2696   13.7321 C.3     1  UNL1        0.0000
     13 H           8.4836    5.7208   13.3429 H       1  UNL1        0.0000
     14 H           7.1284    5.6550   14.4794 H       1  UNL1        0.0000
     15 H           7.9768    7.1813   14.2095 H       1  UNL1        0.0000
     16 C          11.7395    5.5410   11.4901 C.3     1  UNL1        0.0000
     17 H          11.1619    4.7193   11.9036 H       1  UNL1        0.0000
     18 H          12.7246    5.5133   11.9433 H       1  UNL1        0.0000
     19 H          11.8589    5.3488   10.4275 H       1  UNL1        0.0000
     20 C           5.4922    7.4236   13.1272 C.3     1  UNL1        0.0000
     21 H           5.8521    8.3456   13.5792 H       1  UNL1        0.0000
     22 H           4.9478    6.8555   13.8784 H       1  UNL1        0.0000
     23 H           4.8086    7.6705   12.3161 H       1  UNL1        0.0000
     24 C          12.1199    8.5341   11.1278 C.3     1  UNL1        0.0000
     25 H          12.6203    8.1565   10.2422 H       1  UNL1        0.0000
     26 H          12.8859    8.7394   11.8706 H       1  UNL1        0.0000
     27 H          11.6499    9.4775   10.8630 H       1  UNL1        0.0000
     28 C           6.1456    5.3074   11.9708 C.3     1  UNL1        0.0000
     29 H           5.4488    5.5276   11.1629 H       1  UNL1        0.0000
     30 H           5.6335    4.7073   12.7205 H       1  UNL1        0.0000
     31 H           6.9723    4.7260   11.5629 H       1  UNL1        0.0000
     32 C           8.4365    7.1283    7.2818 C.3     1  UNL1        0.0000
     33 H           8.8064    6.1896    7.6932 H       1  UNL1        0.0000
     34 H           8.8124    7.2369    6.2660 H       1  UNL1        0.0000
     35 H           7.3488    7.0839    7.2502 H       1  UNL1        0.0000
     36 C          10.4221    8.3535    8.1607 C.3     1  UNL1        0.0000
     37 H          10.7675    9.2106    8.7334 H       1  UNL1        0.0000
     38 H          10.8070    8.4346    7.1457 H       1  UNL1        0.0000
     39 H          10.8212    7.4459    8.6133 H       1  UNL1        0.0000
     40 C           8.3310    9.6096    7.5966 C.3     1  UNL1        0.0000
     41 H           7.2431    9.5658    7.5696 H       1  UNL1        0.0000
     42 H           8.6977    9.7864    6.5874 H       1  UNL1        0.0000
     43 H           8.6275   10.4450    8.2307 H       1  UNL1        0.0000
@<TRIPOS>BOND
     1    34    32    1
     2    42    40    1
     3    38    36    1
     4    35    32    1
     5    32    33    1
     6    32     7    1
     7    41    40    1
     8    40     7    1
     9    40    43    1
    10     7    36    1
    11     7     4    1
    12    36    39    1
    13    36    37    1
    14     4     1    1
    15     4     2    1
    16     1     5    1
    17    25    24    1
    18    19    16    1
    19     2     5    1
    20     2     3    1
    21    27    24    1
    22    24     3    1
    23    24    26    1
    24    29    28    1
    25    16     3    1
    26    16    17    1
    27    16    18    1
    28     5     6    1
    29    31    28    1
    30     3     8    1
    31    28     6    1
    32    28    30    1
    33    23    20    1
    34     6    20    1
    35     6    12    1
    36    20    21    1
    37    20    22    1
    38    13    12    1
    39     8    10    1
    40     8     9    1
    41     8    11    1
    42    12    15    1
    43    12    14    1
