@<TRIPOS>MOLECULE
1,2,4,6
 72 74 0 0 0
SMALL
GASTEIGER

@<TRIPOS>ATOM
      1 P           4.6614    0.0789    5.9921 P.3     1  UNL1       -0.0688
      2 P           5.1192    3.4651    2.3737 P.3     1  UNL1       -0.0688
      3 C           7.3732    1.6639    6.1782 C.2     1  UNL1       -0.0353
      4 C           6.2177    2.4818    6.0561 C.3     1  UNL1       -0.0005
      5 H           5.5345    2.5058    6.8953 H       1  UNL1        0.0361
      6 C           6.2135    3.5375    5.1366 C.3     1  UNL1       -0.0005
      7 H           5.4688    4.3304    5.2253 H       1  UNL1        0.0361
      8 C           7.3873    3.8256    4.3941 C.2     1  UNL1       -0.0353
      9 C           8.5248    3.0828    4.5997 C.2     1  UNL1       -0.0574
     10 H           9.4230    3.3128    4.0453 H       1  UNL1        0.0621
     11 C           8.5105    1.9885    5.4735 C.2     1  UNL1       -0.0574
     12 H           9.3922    1.3715    5.5577 H       1  UNL1        0.0621
     13 C           7.2951    0.4489    6.9922 C.ar    1  UNL1       -0.0139
     14 C           6.1502   -0.3718    6.9713 C.ar    1  UNL1       -0.0155
     15 C           6.1908   -1.5726    7.6785 C.ar    1  UNL1       -0.0536
     16 H           5.3527   -2.2497    7.6419 H       1  UNL1        0.0624
     17 C           7.2939   -1.9411    8.4256 C.ar    1  UNL1       -0.0611
     18 H           7.2879   -2.8749    8.9683 H       1  UNL1        0.0618
     19 C           8.4020   -1.1119    8.4744 C.ar    1  UNL1       -0.0612
     20 H           9.2638   -1.3864    9.0643 H       1  UNL1        0.0618
     21 C           8.4003    0.0631    7.7515 C.ar    1  UNL1       -0.0537
     22 H           9.2631    0.7124    7.7796 H       1  UNL1        0.0624
     23 C           7.3018    4.9089    3.4099 C.ar    1  UNL1       -0.0139
     24 C           6.2204    4.9371    2.5154 C.ar    1  UNL1       -0.0155
     25 C           6.1131    6.0172    1.6426 C.ar    1  UNL1       -0.0536
     26 H           5.2830    6.0827    0.9563 H       1  UNL1        0.0624
     27 C           7.0510    7.0343    1.6434 C.ar    1  UNL1       -0.0611
     28 H           6.9386    7.8674    0.9649 H       1  UNL1        0.0618
     29 C           8.1356    6.9797    2.5029 C.ar    1  UNL1       -0.0612
     30 H           8.8768    7.7650    2.4936 H       1  UNL1        0.0618
     31 C           8.2558    5.9214    3.3827 C.ar    1  UNL1       -0.0537
     32 H           9.0831    5.8789    4.0763 H       1  UNL1        0.0624
     33 C           3.9929   -1.5645    5.4150 C.3     1  UNL1       -0.0219
     34 H           3.8731   -2.2416    6.2658 H       1  UNL1        0.0346
     35 C           4.9743   -2.2105    4.4492 C.3     1  UNL1       -0.0584
     36 H           5.1984   -1.5378    3.6256 H       1  UNL1        0.0236
     37 H           4.5572   -3.1329    4.0476 H       1  UNL1        0.0236
     38 H           5.9046   -2.4451    4.9596 H       1  UNL1        0.0236
     39 C           2.6235   -1.3395    4.7757 C.3     1  UNL1       -0.0584
     40 H           1.8477   -1.2146    5.5287 H       1  UNL1        0.0236
     41 H           2.3548   -2.1902    4.1517 H       1  UNL1        0.0236
     42 H           2.6357   -0.4482    4.1449 H       1  UNL1        0.0236
     43 C           3.3898    0.4420    7.3494 C.3     1  UNL1       -0.0219
     44 H           2.4840    0.6756    6.7743 H       1  UNL1        0.0346
     45 C           3.0853   -0.7165    8.3000 C.3     1  UNL1       -0.0584
     46 H           2.2892   -0.4058    8.9764 H       1  UNL1        0.0236
     47 H           3.9559   -0.9605    8.9052 H       1  UNL1        0.0236
     48 H           2.7382   -1.6104    7.7910 H       1  UNL1        0.0236
     49 C           3.7253    1.6626    8.2072 C.3     1  UNL1       -0.0584
     50 H           4.7016    1.5561    8.6831 H       1  UNL1        0.0236
     51 H           2.9813    1.7585    8.9982 H       1  UNL1        0.0236
     52 H           3.6823    2.5808    7.6254 H       1  UNL1        0.0236
     53 C           5.7548    2.7754    0.7473 C.3     1  UNL1       -0.0219
     54 H           5.4151    1.7329    0.7568 H       1  UNL1        0.0346
     55 C           7.2789    2.7793    0.8074 C.3     1  UNL1       -0.0584
     56 H           7.6712    3.7803    0.6354 H       1  UNL1        0.0236
     57 H           7.6858    2.1177    0.0455 H       1  UNL1        0.0236
     58 H           7.6110    2.4313    1.7846 H       1  UNL1        0.0236
     59 C           5.2866    3.4309   -0.5485 C.3     1  UNL1       -0.0584
     60 H           4.2109    3.3548   -0.6833 H       1  UNL1        0.0236
     61 H           5.7596    2.9163   -1.3844 H       1  UNL1        0.0236
     62 H           5.5856    4.4757   -0.5965 H       1  UNL1        0.0236
     63 C           3.5043    4.2560    1.8888 C.3     1  UNL1       -0.0219
     64 H           3.6595    4.7608    0.9280 H       1  UNL1        0.0346
     65 C           2.4579    3.1617    1.7009 C.3     1  UNL1       -0.0584
     66 H           2.8119    2.3912    1.0155 H       1  UNL1        0.0236
     67 H           1.5365    3.5845    1.3020 H       1  UNL1        0.0236
     68 H           2.2290    2.6908    2.6557 H       1  UNL1        0.0236
     69 C           3.0542    5.2912    2.9163 C.3     1  UNL1       -0.0584
     70 H           2.8659    4.8182    3.8767 H       1  UNL1        0.0236
     71 H           2.1286    5.7608    2.5854 H       1  UNL1        0.0236
     72 H           3.8053    6.0692    3.0504 H       1  UNL1        0.0236
@<TRIPOS>BOND
     1    61    59    1
     2    60    59    1
     3    62    59    1
     4    59    53    1
     5    57    55    1
     6    56    55    1
     7    53    54    1
     8    53    55    1
     9    53     2    1
    10    55    58    1
    11    64    63    1
    12    26    25    1
    13    28    27    1
    14    66    65    1
    15    67    65    1
    16    25    27   ar
    17    25    24   ar
    18    27    29   ar
    19    65    63    1
    20    65    68    1
    21    63     2    1
    22    63    69    1
    23     2    24    1
    24    30    29    1
    25    29    31   ar
    26    24    23   ar
    27    71    69    1
    28    69    72    1
    29    69    70    1
    30    31    23   ar
    31    31    32    1
    32    23     8    1
    33    36    35    1
    34    10     9    1
    35    37    35    1
    36    42    39    1
    37    41    39    1
    38     8     9    2
    39     8     6    1
    40    35    38    1
    41    35    33    1
    42     9    11    1
    43    39    33    1
    44    39    40    1
    45     6     7    1
    46     6     4    1
    47    33     1    1
    48    33    34    1
    49    11    12    1
    50    11     3    2
    51     1    14    1
    52     1    43    1
    53     4     3    1
    54     4     5    1
    55     3    13    1
    56    44    43    1
    57    14    13   ar
    58    14    15   ar
    59    13    21   ar
    60    43    49    1
    61    43    45    1
    62    52    49    1
    63    16    15    1
    64    15    17   ar
    65    21    22    1
    66    21    19   ar
    67    48    45    1
    68    49    50    1
    69    49    51    1
    70    45    47    1
    71    45    46    1
    72    17    19   ar
    73    17    18    1
    74    19    20    1
