@<TRIPOS>MOLECULE
1,2,68,70
 79 80 0 0 0
SMALL
GASTEIGER

@<TRIPOS>ATOM
      1 P          10.9811    4.8299    6.0788 P.3     1  UNL1        0.0000
      2 P           8.3576    6.1724    3.6750 P.3     1  UNL1        0.0000
      3 SI         11.5861    5.8653    2.9261 Si      1  UNL1        0.0000
      4 C          12.6806    5.2694    5.5253 C.ar    1  UNL1        0.0000
      5 C          12.9645    5.5833    4.1943 C.ar    1  UNL1        0.0000
      6 C          14.2851    5.8280    3.8292 C.ar    1  UNL1        0.0000
      7 H          14.5063    6.0592    2.7989 H       1  UNL1        0.0000
      8 C          15.3131    5.7830    4.7504 C.ar    1  UNL1        0.0000
      9 H          16.3311    5.9714    4.4425 H       1  UNL1        0.0000
     10 C          15.0234    5.5108    6.0764 C.ar    1  UNL1        0.0000
     11 H          15.8116    5.4954    6.8155 H       1  UNL1        0.0000
     12 C          13.7197    5.2526    6.4537 C.ar    1  UNL1        0.0000
     13 H          13.5165    5.0456    7.4930 H       1  UNL1        0.0000
     14 C          12.3205    6.2096    1.1960 C.3     1  UNL1        0.0000
     15 H          12.9543    5.3924    0.8702 H       1  UNL1        0.0000
     16 H          12.9152    7.1151    1.1977 H       1  UNL1        0.0000
     17 H          11.5423    6.3352    0.4508 H       1  UNL1        0.0000
     18 C          10.7921    7.5011    3.5151 C.ar    1  UNL1        0.0000
     19 C           9.4417    7.6368    3.8569 C.ar    1  UNL1        0.0000
     20 C           8.9599    8.8806    4.2587 C.ar    1  UNL1        0.0000
     21 H           7.9168    9.0147    4.4981 H       1  UNL1        0.0000
     22 C           9.8030    9.9738    4.3535 C.ar    1  UNL1        0.0000
     23 H           9.4090   10.9282    4.6710 H       1  UNL1        0.0000
     24 C          11.1437    9.8405    4.0389 C.ar    1  UNL1        0.0000
     25 H          11.8085   10.6880    4.1163 H       1  UNL1        0.0000
     26 C          11.6222    8.6139    3.6181 C.ar    1  UNL1        0.0000
     27 H          12.6678    8.5097    3.3664 H       1  UNL1        0.0000
     28 C          11.3317    3.1755    6.9487 C.3     1  UNL1        0.0000
     29 H          10.4120    2.6037    6.7546 H       1  UNL1        0.0000
     30 C          12.4916    2.4339    6.2800 C.3     1  UNL1        0.0000
     31 H          13.4517    2.8145    6.6208 H       1  UNL1        0.0000
     32 H          12.4526    2.5352    5.1964 H       1  UNL1        0.0000
     33 H          12.4418    1.3763    6.5353 H       1  UNL1        0.0000
     34 C          11.5348    3.1754    8.4629 C.3     1  UNL1        0.0000
     35 H          11.6190    2.1404    8.7943 H       1  UNL1        0.0000
     36 H          10.6957    3.6217    8.9877 H       1  UNL1        0.0000
     37 H          12.4492    3.6855    8.7574 H       1  UNL1        0.0000
     38 C          10.8614    6.0594    7.4925 C.3     1  UNL1        0.0000
     39 H          11.6572    5.7873    8.1942 H       1  UNL1        0.0000
     40 C          11.1200    7.4753    6.9866 C.3     1  UNL1        0.0000
     41 H          10.3497    7.7696    6.2786 H       1  UNL1        0.0000
     42 H          12.0871    7.5587    6.4946 H       1  UNL1        0.0000
     43 H          11.0986    8.1729    7.8229 H       1  UNL1        0.0000
     44 C           9.5253    6.0164    8.2210 C.3     1  UNL1        0.0000
     45 H           9.5777    6.6237    9.1242 H       1  UNL1        0.0000
     46 H           9.2373    5.0061    8.4969 H       1  UNL1        0.0000
     47 H           8.7445    6.4144    7.5826 H       1  UNL1        0.0000
     48 C           8.1201    6.3883    1.8125 C.3     1  UNL1        0.0000
     49 H           9.1612    6.4376    1.4661 H       1  UNL1        0.0000
     50 C           7.4620    7.7161    1.4398 C.3     1  UNL1        0.0000
     51 H           7.5477    7.8571    0.3631 H       1  UNL1        0.0000
     52 H           7.9464    8.5589    1.9287 H       1  UNL1        0.0000
     53 H           6.4032    7.7190    1.6873 H       1  UNL1        0.0000
     54 C           7.4186    5.2377    1.0932 C.3     1  UNL1        0.0000
     55 H           6.3435    5.3962    1.0619 H       1  UNL1        0.0000
     56 H           7.5987    4.2855    1.5877 H       1  UNL1        0.0000
     57 H           7.7713    5.1723    0.0647 H       1  UNL1        0.0000
     58 C           6.7066    6.6817    4.3838 C.3     1  UNL1        0.0000
     59 H           6.4228    7.6086    3.8706 H       1  UNL1        0.0000
     60 C           6.7720    6.9257    5.8870 C.3     1  UNL1        0.0000
     61 H           5.8215    7.3264    6.2374 H       1  UNL1        0.0000
     62 H           7.5610    7.6262    6.1548 H       1  UNL1        0.0000
     63 H           6.9479    5.9812    6.3979 H       1  UNL1        0.0000
     64 C           5.6682    5.6034    4.0921 C.3     1  UNL1        0.0000
     65 H           5.9898    4.6518    4.5127 H       1  UNL1        0.0000
     66 H           5.5157    5.4651    3.0262 H       1  UNL1        0.0000
     67 H           4.7163    5.8728    4.5474 H       1  UNL1        0.0000
     68 C          10.4516    4.3852    2.7189 C.3     1  UNL1        0.0000
     69 H           9.8908    4.3386    1.7862 H       1  UNL1        0.0000
     70 C          10.5737    3.1792    3.3568 C.3     1  UNL1        0.0000
     71 C          10.9186    1.9123    3.3086 C.3     1  UNL1        0.0000
     72 C          11.9421    1.4361    2.3100 C.3     1  UNL1        0.0000
     73 H          12.2964    2.2598    1.6951 H       1  UNL1        0.0000
     74 H          11.4976    0.6773    1.6664 H       1  UNL1        0.0000
     75 H          12.7920    0.9860    2.8243 H       1  UNL1        0.0000
     76 C          10.3474    0.8541    4.2107 C.3     1  UNL1        0.0000
     77 H           9.6676    1.2885    4.9475 H       1  UNL1        0.0000
     78 H          11.1323    0.3041    4.7294 H       1  UNL1        0.0000
     79 H           9.7784    0.1440    3.6091 H       1  UNL1        0.0000
@<TRIPOS>BOND
     1    57    54    1
     2    51    50    1
     3    17    14    1
     4    15    14    1
     5    55    54    1
     6    54    56    1
     7    54    48    1
     8    14    16    1
     9    14     3    1
    10    50    53    1
    11    50    48    1
    12    50    52    1
    13    49    48    1
    14    74    72    1
    15    73    72    1
    16    69    68    1
    17    48     2    1
    18    72    75    1
    19    72    71    1
    20    68     3    1
    21    68    70    1
    22     7     6    1
    23     3    18    1
    24     3     5    1
    25    66    64    1
    26    71    70    1
    27    71    76    1
    28    27    26    1
    29    18    26   ar
    30    18    19   ar
    31    79    76    1
    32    26    24   ar
    33     2    19    1
    34     2    58    1
    35     6     5   ar
    36     6     8   ar
    37    19    20   ar
    38    59    58    1
    39    24    25    1
    40    24    22   ar
    41    64    58    1
    42    64    65    1
    43    64    67    1
    44     5     4   ar
    45    76    78    1
    46    76    77    1
    47    20    22   ar
    48    20    21    1
    49    22    23    1
    50    58    60    1
    51     9     8    1
    52     8    10   ar
    53    32    30    1
    54     4     1    1
    55     4    12   ar
    56    60    62    1
    57    60    61    1
    58    60    63    1
    59    10    12   ar
    60    10    11    1
    61     1    28    1
    62     1    38    1
    63    41    40    1
    64    30    33    1
    65    30    31    1
    66    30    28    1
    67    12    13    1
    68    42    40    1
    69    29    28    1
    70    28    34    1
    71    40    38    1
    72    40    43    1
    73    38    39    1
    74    38    44    1
    75    47    44    1
    76    44    46    1
    77    44    45    1
    78    34    37    1
    79    34    35    1
    80    34    36    1
