@<TRIPOS>MOLECULE
2,3,4,5,6,7,8
 42 42 0 0 0
SMALL
GASTEIGER

@<TRIPOS>ATOM
      1 SI          5.8398   -0.0659   15.7903 Si      1  UNL1        0.0000
      2 S           6.6829    3.5124   18.6310 S.3     1  UNL1        0.0000
      3 N           6.3459    0.9516   17.0911 N.3     1  UNL1        0.0000
      4 C           7.3512    0.4174   14.7421 C.3     1  UNL1        0.0000
      5 C           8.6695    0.2163   15.2723 C.3     1  UNL1        0.0000
      6 C           9.5256    1.2305   14.7732 C.2     1  UNL1        0.0000
      7 C           8.7439    2.0896   13.9503 C.2     1  UNL1        0.0000
      8 C           7.4146    1.5966   13.9385 C.3     1  UNL1        0.0000
      9 C           9.0879   -0.8757   16.2200 C.3     1  UNL1        0.0000
     10 H           8.4365   -1.7398   16.1138 H       1  UNL1        0.0000
     11 H           9.0399   -0.5265   17.2611 H       1  UNL1        0.0000
     12 H          10.1107   -1.1913   16.0138 H       1  UNL1        0.0000
     13 C          11.0133    1.3164   14.9727 C.3     1  UNL1        0.0000
     14 H          11.3530    2.3514   14.9232 H       1  UNL1        0.0000
     15 H          11.5352    0.7542   14.1940 H       1  UNL1        0.0000
     16 H          11.3019    0.9109   15.9426 H       1  UNL1        0.0000
     17 C           9.2632    3.2592   13.1621 C.3     1  UNL1        0.0000
     18 H           8.4590    3.9567   12.9323 H       1  UNL1        0.0000
     19 H           9.7090    2.9239   12.2223 H       1  UNL1        0.0000
     20 H          10.0293    3.7971   13.7237 H       1  UNL1        0.0000
     21 C           6.2955    2.1784   13.1200 C.3     1  UNL1        0.0000
     22 H           6.6613    2.4683   12.1345 H       1  UNL1        0.0000
     23 H           5.8759    3.0708   13.5965 H       1  UNL1        0.0000
     24 H           5.5047    1.4453   12.9854 H       1  UNL1        0.0000
     25 C           5.6728   -1.9323   16.1993 C.3     1  UNL1        0.0000
     26 H           6.3045   -2.2213   17.0328 H       1  UNL1        0.0000
     27 H           5.9332   -2.5560   15.3513 H       1  UNL1        0.0000
     28 H           4.6488   -2.1645   16.4716 H       1  UNL1        0.0000
     29 C           4.1245    0.4683   15.1053 C.3     1  UNL1        0.0000
     30 H           3.3460    0.1939   15.8112 H       1  UNL1        0.0000
     31 H           3.8923   -0.0254   14.1684 H       1  UNL1        0.0000
     32 H           4.0622    1.5419   14.9474 H       1  UNL1        0.0000
     33 C           5.8143    0.8701   18.4317 C.3     1  UNL1        0.0000
     34 H           5.9465   -0.1454   18.8437 H       1  UNL1        0.0000
     35 H           4.7303    1.0782   18.4506 H       1  UNL1        0.0000
     36 C           6.5232    1.8460   19.3720 C.3     1  UNL1        0.0000
     37 H           7.5583    1.5349   19.5483 H       1  UNL1        0.0000
     38 H           5.9962    1.9335   20.3241 H       1  UNL1        0.0000
     39 C           5.0216    3.7613   17.9200 C.3     1  UNL1        0.0000
     40 H           4.8729    3.0679   17.0885 H       1  UNL1        0.0000
     41 H           5.0092    4.7846   17.5535 H       1  UNL1        0.0000
     42 H           4.2700    3.6343   18.6949 H       1  UNL1        0.0000
@<TRIPOS>BOND
     1    22    21    1
     2    19    17    1
     3    18    17    1
     4    24    21    1
     5    21    23    1
     6    21     8    1
     7    17    20    1
     8    17     7    1
     9     8     7    1
    10     8     4    1
    11     7     6    2
    12    31    29    1
    13    15    13    1
    14     4     5    1
    15     4     1    1
    16     6    13    1
    17     6     5    1
    18    14    13    1
    19    32    29    1
    20    13    16    1
    21    29     1    1
    22    29    30    1
    23     5     9    1
    24    27    25    1
    25     1    25    1
    26     1     3    1
    27    12     9    1
    28    10     9    1
    29    25    28    1
    30    25    26    1
    31     9    11    1
    32    40    39    1
    33     3    33    1
    34    41    39    1
    35    39     2    1
    36    39    42    1
    37    33    35    1
    38    33    34    1
    39    33    36    1
    40     2    36    1
    41    36    37    1
    42    36    38    1
