@<TRIPOS>MOLECULE
2,3,4,5,6,7,8
 37 37 0 0 0
SMALL
GASTEIGER

@<TRIPOS>ATOM
      1 SI          1.0048    5.1675    9.0363 Si      1  UNL1        0.0000
      2 N           0.6248    3.7403    8.1235 N.3     1  UNL1        0.0000
      3 N           0.2693    1.8448    6.4415 N.3     1  UNL1        0.0000
      4 C           1.3677    6.1568    6.3361 C.3     1  UNL1        0.0000
      5 C           2.2631    5.9245    5.2701 C.2     1  UNL1        0.0000
      6 C           3.4112    5.3189    5.7926 C.2     1  UNL1        0.0000
      7 C           3.2349    5.1846    7.1873 C.3     1  UNL1        0.0000
      8 C           1.9916    5.7612    7.5454 C.3     1  UNL1        0.0000
      9 C           2.0495    4.8116   10.5970 C.3     1  UNL1        0.0000
     10 C          -0.5110    6.2420    9.4851 C.3     1  UNL1        0.0000
     11 C          -0.1643    2.6428    8.6299 C.3     1  UNL1        0.0000
     12 C           0.2074    1.3952    7.8285 C.3     1  UNL1        0.0000
     13 C           0.4174    0.7926    5.4058 C.3     1  UNL1        0.0000
     14 C          -0.9658    0.3216    4.9525 C.3     1  UNL1        0.0000
     15 C           1.2615   -0.3918    5.8651 C.3     1  UNL1        0.0000
     16 H          -0.6248    2.3045    6.2372 H       1  UNL1        0.0000
     17 H           0.4257    6.6876    6.2596 H       1  UNL1        0.0000
     18 H           2.1131    6.2200    4.2398 H       1  UNL1        0.0000
     19 H           4.3060    5.0638    5.2384 H       1  UNL1        0.0000
     20 H           3.9855    4.8278    7.8834 H       1  UNL1        0.0000
     21 H           2.5570    5.7062   10.9411 H       1  UNL1        0.0000
     22 H           2.8017    4.0525   10.4013 H       1  UNL1        0.0000
     23 H           1.4231    4.4591   11.4103 H       1  UNL1        0.0000
     24 H          -1.1677    6.3824    8.6315 H       1  UNL1        0.0000
     25 H          -1.0897    5.7772   10.2768 H       1  UNL1        0.0000
     26 H          -0.2045    7.2215    9.8353 H       1  UNL1        0.0000
     27 H           0.0213    2.4803    9.6998 H       1  UNL1        0.0000
     28 H          -1.2419    2.8563    8.5049 H       1  UNL1        0.0000
     29 H          -0.5301    0.5950    7.9841 H       1  UNL1        0.0000
     30 H           1.2003    1.0479    8.1333 H       1  UNL1        0.0000
     31 H           0.9221    1.2657    4.5509 H       1  UNL1        0.0000
     32 H          -1.5221   -0.1039    5.7866 H       1  UNL1        0.0000
     33 H          -1.5296    1.1540    4.5345 H       1  UNL1        0.0000
     34 H          -0.8712   -0.4411    4.1842 H       1  UNL1        0.0000
     35 H           0.7551   -0.9655    6.6376 H       1  UNL1        0.0000
     36 H           2.2257   -0.0548    6.2339 H       1  UNL1        0.0000
     37 H           1.4357   -1.0480    5.0162 H       1  UNL1        0.0000
@<TRIPOS>BOND
     1    34    14    1
     2    18     5    1
     3    33    14    1
     4    31    13    1
     5    14    13    1
     6    14    32    1
     7    37    15    1
     8    19     6    1
     9     5     6    2
    10     5     4    1
    11    13    15    1
    12    13     3    1
    13     6     7    1
    14    15    36    1
    15    15    35    1
    16    16     3    1
    17    17     4    1
    18     4     8    1
    19     3    12    1
    20     7     8    1
    21     7    20    1
    22     8     1    1
    23    12    29    1
    24    12    30    1
    25    12    11    1
    26     2    11    1
    27     2     1    1
    28    28    11    1
    29    11    27    1
    30    24    10    1
    31     1    10    1
    32     1     9    1
    33    10    26    1
    34    10    25    1
    35    22     9    1
    36     9    21    1
    37     9    23    1
