@<TRIPOS>MOLECULE
2,3,4,5,6,7,8
 49 49 0 0 0
SMALL
GASTEIGER

@<TRIPOS>ATOM
      1 SI          7.0420   -0.6021    1.8138 Si      1  UNL1        0.0000
      2 N           5.6952   -0.5285    2.8654 N.3     1  UNL1        0.0000
      3 N           3.9052    0.6024    4.7318 N.3     1  UNL1        0.0000
      4 C           5.4599    1.4110    0.5406 C.2     1  UNL1        0.0000
      5 C           4.3002    1.0073   -0.1774 C.3     1  UNL1        0.0000
      6 C           3.2084    1.8242    0.2593 C.2     1  UNL1        0.0000
      7 C           3.7026    2.7117    1.2630 C.2     1  UNL1        0.0000
      8 C           5.0909    2.4530    1.4293 C.2     1  UNL1        0.0000
      9 C           6.8133    0.7803    0.4710 C.3     1  UNL1        0.0000
     10 H           7.5770    1.5464    0.6008 H       1  UNL1        0.0000
     11 H           6.9703    0.3469   -0.5156 H       1  UNL1        0.0000
     12 C           4.2806    0.0488   -1.3401 C.3     1  UNL1        0.0000
     13 H           3.2877   -0.3747   -1.4910 H       1  UNL1        0.0000
     14 H           4.9862   -0.7680   -1.1839 H       1  UNL1        0.0000
     15 H           4.5633    0.5642   -2.2620 H       1  UNL1        0.0000
     16 C           1.8635    1.9351   -0.4082 C.3     1  UNL1        0.0000
     17 H           1.9027    2.6704   -1.2162 H       1  UNL1        0.0000
     18 H           1.0958    2.2609    0.2942 H       1  UNL1        0.0000
     19 H           1.5519    0.9857   -0.8430 H       1  UNL1        0.0000
     20 C           2.9201    3.8539    1.8557 C.3     1  UNL1        0.0000
     21 H           2.8078    4.6591    1.1255 H       1  UNL1        0.0000
     22 H           3.4252    4.2680    2.7275 H       1  UNL1        0.0000
     23 H           1.9172    3.5422    2.1578 H       1  UNL1        0.0000
     24 C           6.0717    3.2591    2.2345 C.3     1  UNL1        0.0000
     25 H           6.8132    2.6136    2.7046 H       1  UNL1        0.0000
     26 H           5.5763    3.8454    3.0064 H       1  UNL1        0.0000
     27 H           6.6059    3.9563    1.5839 H       1  UNL1        0.0000
     28 C           8.7245   -0.3187    2.6887 C.3     1  UNL1        0.0000
     29 H           8.7422    0.6144    3.2439 H       1  UNL1        0.0000
     30 H           9.5433   -0.2923    1.9780 H       1  UNL1        0.0000
     31 H           8.9257   -1.1220    3.3895 H       1  UNL1        0.0000
     32 C           7.1876   -2.2861    0.8919 C.3     1  UNL1        0.0000
     33 H           7.4115   -3.0910    1.5852 H       1  UNL1        0.0000
     34 H           7.9770   -2.2685    0.1474 H       1  UNL1        0.0000
     35 H           6.2596   -2.5402    0.3861 H       1  UNL1        0.0000
     36 C           5.8116   -0.9647    4.2421 C.3     1  UNL1        0.0000
     37 H           6.6589   -0.4625    4.7333 H       1  UNL1        0.0000
     38 H           6.0148   -2.0470    4.3123 H       1  UNL1        0.0000
     39 C           4.5278   -0.6964    5.0578 C.3     1  UNL1        0.0000
     40 H           3.7919   -1.4763    4.8351 H       1  UNL1        0.0000
     41 H           4.7687   -0.7446    6.1318 H       1  UNL1        0.0000
     42 C           2.6428    0.7284    5.4649 C.3     1  UNL1        0.0000
     43 H           1.9708   -0.0911    5.2140 H       1  UNL1        0.0000
     44 H           2.1588    1.6701    5.2008 H       1  UNL1        0.0000
     45 H           2.8114    0.7177    6.5511 H       1  UNL1        0.0000
     46 C           4.7917    1.6911    5.1548 C.3     1  UNL1        0.0000
     47 H           5.0002    1.6330    6.2324 H       1  UNL1        0.0000
     48 H           4.3164    2.6495    4.9444 H       1  UNL1        0.0000
     49 H           5.7293    1.6334    4.6074 H       1  UNL1        0.0000
@<TRIPOS>BOND
     1    15    12    1
     2    13    12    1
     3    12    14    1
     4    12     5    1
     5    17    16    1
     6    19    16    1
     7    11     9    1
     8    16     6    1
     9    16    18    1
    10     5     6    1
    11     5     4    1
    12    34    32    1
    13     6     7    2
    14    35    32    1
    15     9     4    1
    16     9    10    1
    17     9     1    1
    18     4     8    2
    19    32    33    1
    20    32     1    1
    21    21    20    1
    22     7     8    1
    23     7    20    1
    24     8    24    1
    25    27    24    1
    26     1    28    1
    27     1     2    1
    28    20    23    1
    29    20    22    1
    30    30    28    1
    31    24    25    1
    32    24    26    1
    33    28    29    1
    34    28    31    1
    35     2    36    1
    36    36    38    1
    37    36    37    1
    38    36    39    1
    39    49    46    1
    40     3    39    1
    41     3    46    1
    42     3    42    1
    43    40    39    1
    44    48    46    1
    45    39    41    1
    46    46    47    1
    47    44    42    1
    48    43    42    1
    49    42    45    1
