@<TRIPOS>MOLECULE
2,3,4,5,6,7,8
 46 46 0 0 0
SMALL
GASTEIGER

@<TRIPOS>ATOM
      1 SI          6.8575    6.8853    1.6771 Si      1  UNL1        0.0000
      2 N           7.7716    7.1802    3.1102 N.3     1  UNL1        0.0000
      3 N           6.4907    5.4270    5.5687 N.3     1  UNL1        0.0000
      4 C           5.1764    7.1008    2.5263 C.3     1  UNL1        0.0000
      5 C           4.6744    6.2822    3.5744 C.3     1  UNL1        0.0000
      6 C           3.8585    7.0738    4.4152 C.2     1  UNL1        0.0000
      7 C           3.8449    8.3867    3.8977 C.2     1  UNL1        0.0000
      8 C           4.6566    8.4025    2.7505 C.3     1  UNL1        0.0000
      9 C           6.9123    8.1475    0.2280 C.3     1  UNL1        0.0000
     10 C           7.1211    5.1891    0.8043 C.3     1  UNL1        0.0000
     11 C           9.1976    7.4542    3.1891 C.3     1  UNL1        0.0000
     12 C           9.6440    8.5097    2.1616 C.3     1  UNL1        0.0000
     13 C          10.0145    6.1712    2.9329 C.3     1  UNL1        0.0000
     14 C           9.5275    8.0096    4.5963 C.3     1  UNL1        0.0000
     15 C           4.9241    4.8061    3.7276 C.3     1  UNL1        0.0000
     16 C           6.2667    4.5287    4.4266 C.3     1  UNL1        0.0000
     17 C           7.8208    5.1676    6.1226 C.3     1  UNL1        0.0000
     18 C           5.5223    5.1458    6.6344 C.3     1  UNL1        0.0000
     19 H           3.2002    6.7190    5.2011 H       1  UNL1        0.0000
     20 H           3.2137    9.1948    4.2499 H       1  UNL1        0.0000
     21 H           4.7784    9.2431    2.0791 H       1  UNL1        0.0000
     22 H           7.7725    7.9857   -0.4129 H       1  UNL1        0.0000
     23 H           6.0273    8.0566   -0.3933 H       1  UNL1        0.0000
     24 H           6.9582    9.1701    0.5883 H       1  UNL1        0.0000
     25 H           7.9841    5.2363    0.1480 H       1  UNL1        0.0000
     26 H           7.2827    4.3665    1.4925 H       1  UNL1        0.0000
     27 H           6.2645    4.9401    0.1875 H       1  UNL1        0.0000
     28 H           8.9957    9.3802    2.2324 H       1  UNL1        0.0000
     29 H           9.5774    8.1071    1.1561 H       1  UNL1        0.0000
     30 H          10.6713    8.8128    2.3511 H       1  UNL1        0.0000
     31 H           9.7562    5.7683    1.9578 H       1  UNL1        0.0000
     32 H           9.7991    5.4128    3.6824 H       1  UNL1        0.0000
     33 H          11.0805    6.3857    2.9530 H       1  UNL1        0.0000
     34 H          10.5872    7.8799    4.8146 H       1  UNL1        0.0000
     35 H           9.2997    9.0764    4.6326 H       1  UNL1        0.0000
     36 H           8.9398    7.5016    5.3697 H       1  UNL1        0.0000
     37 H           4.9518    4.3342    2.7426 H       1  UNL1        0.0000
     38 H           4.1050    4.3459    4.2886 H       1  UNL1        0.0000
     39 H           6.3071    3.4737    4.7517 H       1  UNL1        0.0000
     40 H           7.0760    4.7115    3.7119 H       1  UNL1        0.0000
     41 H           7.8936    4.1402    6.5133 H       1  UNL1        0.0000
     42 H           8.0119    5.8622    6.9433 H       1  UNL1        0.0000
     43 H           8.5785    5.2937    5.3491 H       1  UNL1        0.0000
     44 H           4.5055    5.3019    6.2842 H       1  UNL1        0.0000
     45 H           5.7068    5.8187    7.4719 H       1  UNL1        0.0000
     46 H           5.6166    4.1068    6.9849 H       1  UNL1        0.0000
@<TRIPOS>BOND
     1    22     9    1
     2    23     9    1
     3    25    10    1
     4    27    10    1
     5     9    24    1
     6     9     1    1
     7    10    26    1
     8    10     1    1
     9    29    12    1
    10     1     4    1
    11     1     2    1
    12    31    13    1
    13    21     8    1
    14    12    28    1
    15    12    30    1
    16    12    11    1
    17     4     8    1
    18     4     5    1
    19    37    15    1
    20     8     7    1
    21    13    33    1
    22    13    11    1
    23    13    32    1
    24     2    11    1
    25    11    14    1
    26     5    15    1
    27     5     6    1
    28    40    16    1
    29    15    38    1
    30    15    16    1
    31     7    20    1
    32     7     6    2
    33     6    19    1
    34    16    39    1
    35    16     3    1
    36    14    35    1
    37    14    34    1
    38    14    36    1
    39    43    17    1
    40     3    17    1
    41     3    18    1
    42    17    41    1
    43    17    42    1
    44    44    18    1
    45    18    46    1
    46    18    45    1
