@<TRIPOS>MOLECULE
1,3,32,33,35,37,39
 62 66 0 0 0
SMALL
GASTEIGER

@<TRIPOS>ATOM
      1 N           6.2703   -0.1095    2.2343 N.pl3   1  UNL1       -0.1690
      2 N           5.2722   -0.9568    2.5783 N.3     1  UNL1       -0.1767
      3 N           4.3754    1.7041    2.1743 N.pl3   1  UNL1       -0.1690
      4 N           3.5801    0.6638    2.5091 N.3     1  UNL1       -0.1767
      5 C           5.4717   -2.1797    2.0229 C.3     1  UNL1        0.0830
      6 C           6.6481   -2.1056    1.3119 C.2     1  UNL1       -0.0406
      7 H           7.1115   -2.8935    0.7546 H       1  UNL1        0.0608
      8 C           7.1072   -0.7879    1.4613 C.2     1  UNL1        0.0395
      9 C           4.5624   -3.3424    2.1798 C.3     1  UNL1       -0.0392
     10 H           4.9821   -4.1916    1.6482 H       1  UNL1        0.0252
     11 H           3.5763   -3.1346    1.7632 H       1  UNL1        0.0252
     12 H           4.4466   -3.6098    3.2291 H       1  UNL1        0.0252
     13 C           8.3021   -0.1519    0.8532 C.3     1  UNL1       -0.0237
     14 H           8.3426    0.9059    1.1258 H       1  UNL1        0.0291
     15 H           8.2645   -0.2537   -0.2306 H       1  UNL1        0.0291
     16 H           9.2108   -0.6360    1.2058 H       1  UNL1        0.0291
     17 C           2.3296    0.8250    2.0117 C.3     1  UNL1        0.0830
     18 C           2.3362    2.0108    1.3131 C.2     1  UNL1       -0.0406
     19 H           1.5144    2.4514    0.7874 H       1  UNL1        0.0608
     20 C           3.6377    2.5227    1.4317 C.2     1  UNL1        0.0395
     21 C           1.2166   -0.1311    2.2421 C.3     1  UNL1       -0.0392
     22 H           1.4204   -1.0998    1.7838 H       1  UNL1        0.0252
     23 H           0.3090    0.2678    1.7988 H       1  UNL1        0.0252
     24 H           1.0467   -0.2732    3.3093 H       1  UNL1        0.0252
     25 C           4.1985    3.7523    0.8236 C.3     1  UNL1       -0.0237
     26 H           5.0428    4.1025    1.4221 H       1  UNL1        0.0291
     27 H           3.4375    4.5263    0.7700 H       1  UNL1        0.0291
     28 H           4.5462    3.5401   -0.1875 H       1  UNL1        0.0291
     29 C           4.0659   -0.4886    3.2319 C.3     1  UNL1        0.1158
     30 H           3.3185   -1.2692    3.0706 H       1  UNL1        0.0676
     31 C           4.1806   -0.2763    4.8076 C.3     1  UNL1        0.0626
     32 C           5.4849    0.4121    5.1614 C.3     1  UNL1        0.0193
     33 C           6.7679   -0.1797    5.0091 C.2     1  UNL1       -0.0791
     34 H           6.9666   -1.1792    4.6474 H       1  UNL1        0.0575
     35 C           7.7279    0.6871    5.5501 C.2     1  UNL1       -0.0834
     36 H           8.7813    0.4756    5.6459 H       1  UNL1        0.0572
     37 C           7.0605    1.8179    6.0560 C.3     1  UNL1       -0.0124
     38 H           7.5072    2.6063    6.6466 H       1  UNL1        0.0352
     39 C           5.6757    1.6555    5.8277 C.3     1  UNL1       -0.0189
     40 H           4.9040    2.2684    6.2740 H       1  UNL1        0.0319
     41 C           2.9735    0.5564    5.2568 C.ar    1  UNL1       -0.0331
     42 C           2.8543    1.8950    4.8823 C.ar    1  UNL1       -0.0576
     43 H           3.6302    2.3896    4.3129 H       1  UNL1        0.0621
     44 C           1.7557    2.6484    5.2557 C.ar    1  UNL1       -0.0615
     45 H           1.7019    3.6813    4.9463 H       1  UNL1        0.0618
     46 C           0.7480    2.0923    6.0231 C.ar    1  UNL1       -0.0617
     47 H          -0.1097    2.6799    6.3133 H       1  UNL1        0.0618
     48 C           0.8669    0.7764    6.4292 C.ar    1  UNL1       -0.0615
     49 H           0.1039    0.3270    7.0477 H       1  UNL1        0.0618
     50 C           1.9650    0.0208    6.0529 C.ar    1  UNL1       -0.0576
     51 H           2.0259   -0.9961    6.4059 H       1  UNL1        0.0621
     52 C           4.1221   -1.6544    5.4782 C.ar    1  UNL1       -0.0331
     53 C           4.9381   -1.9368    6.5684 C.ar    1  UNL1       -0.0576
     54 H           5.6231   -1.1867    6.9273 H       1  UNL1        0.0621
     55 C           4.8851   -3.1637    7.2072 C.ar    1  UNL1       -0.0615
     56 H           5.5393   -3.3530    8.0447 H       1  UNL1        0.0618
     57 C           3.9986   -4.1380    6.7862 C.ar    1  UNL1       -0.0617
     58 H           3.9592   -5.0974    7.2792 H       1  UNL1        0.0618
     59 C           3.1401   -3.8549    5.7391 C.ar    1  UNL1       -0.0615
     60 H           2.4137   -4.5877    5.4180 H       1  UNL1        0.0618
     61 C           3.1954   -2.6267    5.1021 C.ar    1  UNL1       -0.0576
     62 H           2.4654   -2.4338    4.3277 H       1  UNL1        0.0621
@<TRIPOS>BOND
     1    15    13    1
     2    28    25    1
     3     7     6    1
     4    27    25    1
     5    19    18    1
     6    25    26    1
     7    25    20    1
     8    13    14    1
     9    13    16    1
    10    13     8    1
    11     6     8    2
    12     6     5    1
    13    18    20    2
    14    18    17    1
    15    20     3    1
    16     8     1    1
    17    10     9    1
    18    11     9    1
    19    22    21    1
    20    23    21    1
    21    17    21    1
    22    17     4    1
    23     5     9    1
    24     5     2    1
    25     3     4    1
    26     9    12    1
    27     1     2    1
    28    21    24    1
    29     4    29    1
    30     2    29    1
    31    30    29    1
    32    29    31    1
    33    43    42    1
    34    62    61    1
    35    34    33    1
    36    31    32    1
    37    31    41    1
    38    31    52    1
    39    42    44   ar
    40    42    41   ar
    41    45    44    1
    42    33    32    1
    43    33    35    2
    44    61    52   ar
    45    61    59   ar
    46    32    39    1
    47    44    46   ar
    48    41    50   ar
    49    60    59    1
    50    52    53   ar
    51    35    36    1
    52    35    37    1
    53    59    57   ar
    54    39    37    1
    55    39    40    1
    56    46    47    1
    57    46    48   ar
    58    50    51    1
    59    50    48   ar
    60    37    38    1
    61    48    49    1
    62    53    54    1
    63    53    55   ar
    64    57    55   ar
    65    57    58    1
    66    55    56    1
