@<TRIPOS>MOLECULE
3,4,5,6,8,9,11
 54 54 0 0 0
SMALL
GASTEIGER

@<TRIPOS>ATOM
      1 SI          4.0786    7.4858   11.0488 Si      1  UNL1        0.0000
      2 SI          8.4204    4.9893   12.6514 Si      1  UNL1        0.0000
      3 N           5.0815    6.6565    9.8542 N.3     1  UNL1        0.0000
      4 N           8.0333    5.3625   10.9735 N.3     1  UNL1        0.0000
      5 C           4.7112    6.3533   12.4191 C.3     1  UNL1        0.0000
      6 C           6.0885    6.4885   12.7360 C.3     1  UNL1        0.0000
      7 H           6.6201    7.4312   12.7995 H       1  UNL1        0.0000
      8 C           6.6143    5.2254   13.1336 C.3     1  UNL1        0.0000
      9 C           5.5584    4.3035   13.0240 C.2     1  UNL1        0.0000
     10 H           5.6086    3.2742   13.3523 H       1  UNL1        0.0000
     11 C           4.4014    4.9840   12.5863 C.2     1  UNL1        0.0000
     12 H           3.4047    4.5668   12.5238 H       1  UNL1        0.0000
     13 C           4.9874    7.0334    8.4369 C.3     1  UNL1        0.0000
     14 C           8.9866    6.1368   10.1800 C.3     1  UNL1        0.0000
     15 C           2.1698    7.4625   11.0570 C.3     1  UNL1        0.0000
     16 H           1.7411    8.1217   10.3119 H       1  UNL1        0.0000
     17 H           1.8142    7.7922   12.0287 H       1  UNL1        0.0000
     18 H           1.7720    6.4692   10.8876 H       1  UNL1        0.0000
     19 C           4.6463    9.2968   11.3515 C.3     1  UNL1        0.0000
     20 H           5.7272    9.4052   11.3197 H       1  UNL1        0.0000
     21 H           4.3097    9.6357   12.3254 H       1  UNL1        0.0000
     22 H           4.2243    9.9730   10.6154 H       1  UNL1        0.0000
     23 C           3.6357    7.6802    8.0995 C.3     1  UNL1        0.0000
     24 H           2.8154    7.0504    8.4135 H       1  UNL1        0.0000
     25 H           3.5636    7.8304    7.0247 H       1  UNL1        0.0000
     26 H           3.5427    8.6471    8.5838 H       1  UNL1        0.0000
     27 C           5.1241    5.7904    7.5396 C.3     1  UNL1        0.0000
     28 H           6.0237    5.2213    7.7794 H       1  UNL1        0.0000
     29 H           5.1786    6.0900    6.4951 H       1  UNL1        0.0000
     30 H           4.2542    5.1465    7.6570 H       1  UNL1        0.0000
     31 C           6.0582    8.0771    8.0617 C.3     1  UNL1        0.0000
     32 H           5.9804    8.9314    8.7299 H       1  UNL1        0.0000
     33 H           5.8880    8.4223    7.0445 H       1  UNL1        0.0000
     34 H           7.0626    7.6745    8.1212 H       1  UNL1        0.0000
     35 C           9.1751    3.2713   12.9953 C.3     1  UNL1        0.0000
     36 H           8.4126    2.5111   13.1098 H       1  UNL1        0.0000
     37 H           9.7494    3.3031   13.9140 H       1  UNL1        0.0000
     38 H           9.8403    2.9547   12.2004 H       1  UNL1        0.0000
     39 C           9.4162    6.2046   13.7640 C.3     1  UNL1        0.0000
     40 H          10.4841    6.0189   13.7146 H       1  UNL1        0.0000
     41 H           9.1178    6.0620   14.7992 H       1  UNL1        0.0000
     42 H           9.2487    7.2506   13.5280 H       1  UNL1        0.0000
     43 C           8.8608    5.8215    8.6821 C.3     1  UNL1        0.0000
     44 H           9.3202    4.8602    8.4686 H       1  UNL1        0.0000
     45 H           9.3739    6.5791    8.0926 H       1  UNL1        0.0000
     46 H           7.8116    5.7918    8.3947 H       1  UNL1        0.0000
     47 C          10.4459    5.8387   10.5533 C.3     1  UNL1        0.0000
     48 H          10.6924    6.2176   11.5368 H       1  UNL1        0.0000
     49 H          11.1090    6.3091    9.8308 H       1  UNL1        0.0000
     50 H          10.6190    4.7661   10.5363 H       1  UNL1        0.0000
     51 C           8.6925    7.6315   10.4233 C.3     1  UNL1        0.0000
     52 H           7.6161    7.8032   10.3273 H       1  UNL1        0.0000
     53 H           9.2316    8.2580    9.7164 H       1  UNL1        0.0000
     54 H           9.0002    7.9077   11.4283 H       1  UNL1        0.0000
@<TRIPOS>BOND
     1    29    27    1
     2    25    23    1
     3    33    31    1
     4    27    30    1
     5    27    28    1
     6    27    13    1
     7    31    34    1
     8    31    13    1
     9    31    32    1
    10    45    43    1
    11    23    24    1
    12    23    13    1
    13    23    26    1
    14    46    43    1
    15    13     3    1
    16    44    43    1
    17    43    14    1
    18    53    51    1
    19    49    47    1
    20     3     1    1
    21    14    51    1
    22    14    47    1
    23    14     4    1
    24    16    15    1
    25    52    51    1
    26    51    54    1
    27    50    47    1
    28    47    48    1
    29    22    19    1
    30    18    15    1
    31     4     2    1
    32     1    15    1
    33     1    19    1
    34     1     5    1
    35    15    17    1
    36    20    19    1
    37    19    21    1
    38    38    35    1
    39     5    11    1
    40     5     6    1
    41    12    11    1
    42    11     9    2
    43     2    35    1
    44     2     8    1
    45     2    39    1
    46     6     7    1
    47     6     8    1
    48    35    36    1
    49    35    37    1
    50     9     8    1
    51     9    10    1
    52    42    39    1
    53    40    39    1
    54    39    41    1
