@<TRIPOS>MOLECULE
1,2,4,5,7,9,11
 34 34 0 0 0
SMALL
GASTEIGER

@<TRIPOS>ATOM
      1 N           5.9955    1.2746    8.3413 N.3     1  UNL1        0.0000
      2 N           6.8345   -1.3692    8.3978 N.3     1  UNL1        0.0000
      3 SI          5.3247    2.8969    8.3662 Si      1  UNL1        0.0000
      4 C           3.5689    2.1781    8.3551 C.3     1  UNL1        0.0000
      5 C           2.9904    1.5662    9.4960 C.3     1  UNL1        0.0000
      6 H           3.1208    1.8993   10.5171 H       1  UNL1        0.0000
      7 C           2.0901    0.5606    9.0764 C.2     1  UNL1        0.0000
      8 H           1.4348   -0.0127    9.7189 H       1  UNL1        0.0000
      9 C           2.1206    0.5168    7.6721 C.2     1  UNL1        0.0000
     10 H           1.4926   -0.0951    7.0378 H       1  UNL1        0.0000
     11 C           3.0388    1.4972    7.2298 C.3     1  UNL1        0.0000
     12 H           3.2063    1.7711    6.1962 H       1  UNL1        0.0000
     13 C           7.4081    1.0249    8.4385 C.3     1  UNL1        0.0000
     14 H           7.9883    1.7916    7.9108 H       1  UNL1        0.0000
     15 H           7.7033    1.0468    9.5000 H       1  UNL1        0.0000
     16 C           7.7151   -0.3439    7.8221 C.3     1  UNL1        0.0000
     17 H           8.7709   -0.6076    7.9721 H       1  UNL1        0.0000
     18 H           7.5021   -0.2803    6.7509 H       1  UNL1        0.0000
     19 C           7.3339   -1.7893    9.7096 C.3     1  UNL1        0.0000
     20 H           7.4400   -0.9366   10.3758 H       1  UNL1        0.0000
     21 H           8.3050   -2.2876    9.6017 H       1  UNL1        0.0000
     22 H           6.6230   -2.4828   10.1588 H       1  UNL1        0.0000
     23 C           5.7511    3.8016    9.9859 C.3     1  UNL1        0.0000
     24 H           6.7720    4.1679    9.9658 H       1  UNL1        0.0000
     25 H           5.6527    3.1337   10.8371 H       1  UNL1        0.0000
     26 H           5.0983    4.6527   10.1450 H       1  UNL1        0.0000
     27 C           5.7852    3.8616    6.7919 C.3     1  UNL1        0.0000
     28 H           5.6799    3.2417    5.9065 H       1  UNL1        0.0000
     29 H           6.8125    4.2068    6.8376 H       1  UNL1        0.0000
     30 H           5.1512    4.7329    6.6729 H       1  UNL1        0.0000
     31 C           6.8250   -2.5624    7.5457 C.3     1  UNL1        0.0000
     32 H           6.1611   -3.3076    7.9839 H       1  UNL1        0.0000
     33 H           7.8350   -2.9801    7.4636 H       1  UNL1        0.0000
     34 H           6.4567   -2.3152    6.5514 H       1  UNL1        0.0000
@<TRIPOS>BOND
     1    28    27    1
     2    12    11    1
     3    34    31    1
     4    30    27    1
     5    18    16    1
     6    27    29    1
     7    27     3    1
     8    10     9    1
     9    11     9    1
    10    11     4    1
    11    33    31    1
    12    31    32    1
    13    31     2    1
    14     9     7    2
    15    16    17    1
    16    16     2    1
    17    16    13    1
    18    14    13    1
    19     1     3    1
    20     1    13    1
    21     4     3    1
    22     4     5    1
    23     3    23    1
    24     2    19    1
    25    13    15    1
    26     7     5    1
    27     7     8    1
    28     5     6    1
    29    21    19    1
    30    19    22    1
    31    19    20    1
    32    24    23    1
    33    23    26    1
    34    23    25    1
