@<TRIPOS>MOLECULE
2,5,21,22,23,24,25
 41 42 0 0 0
SMALL
GASTEIGER

@<TRIPOS>ATOM
      1 SI          0.3247    1.4516    3.1660 Si      1  UNL1        0.0000
      2 N           1.0516    5.2631    2.9375 N.pl3   1  UNL1        0.5000
      3 C           0.6777    6.5221    3.1559 C.3     1  UNL1        0.0000
      4 H           1.4734    7.2619    3.1370 H       1  UNL1        0.0000
      5 N           0.6014    3.0846    2.6616 N.pl3   1  UNL1        0.5000
      6 C          -0.6277    6.9009    3.3931 C.2     1  UNL1        0.0000
      7 H          -0.8809    7.9348    3.5631 H       1  UNL1        0.0000
      8 C          -1.6107    5.9065    3.4103 C.2     1  UNL1        0.0000
      9 H          -2.6420    6.1702    3.5989 H       1  UNL1        0.0000
     10 C          -1.2604    4.6016    3.1825 C.2     1  UNL1        0.0000
     11 H          -1.9870    3.8040    3.1765 H       1  UNL1        0.0000
     12 C           0.0964    4.2806    2.9326 C.2     1  UNL1        0.0000
     13 C          -0.7505    1.3111    4.7521 C.3     1  UNL1        0.0000
     14 H          -1.7912    1.5002    4.5078 H       1  UNL1        0.0000
     15 H          -0.4585    2.0301    5.5117 H       1  UNL1        0.0000
     16 H          -0.6990    0.3186    5.1857 H       1  UNL1        0.0000
     17 C          -0.5854    0.4007    1.8413 C.3     1  UNL1        0.0000
     18 H          -1.6406    0.3126    2.0779 H       1  UNL1        0.0000
     19 H          -0.1769   -0.6025    1.7954 H       1  UNL1        0.0000
     20 H          -0.5079    0.8344    0.8504 H       1  UNL1        0.0000
     21 C           2.1813    1.1132    3.3364 C.3     1  UNL1        0.0000
     22 C           2.9653    1.4054    4.4897 C.2     1  UNL1        0.0000
     23 C           4.2630    1.7828    4.0802 C.2     1  UNL1        0.0000
     24 C           4.3122    1.7197    2.6567 C.3     1  UNL1        0.0000
     25 C           3.0320    1.3316    2.2039 C.3     1  UNL1        0.0000
     26 C           2.6511    1.1258    0.7631 C.3     1  UNL1        0.0000
     27 H           2.5352    0.0625    0.5395 H       1  UNL1        0.0000
     28 H           3.4209    1.5292    0.1064 H       1  UNL1        0.0000
     29 H           1.7034    1.6185    0.5358 H       1  UNL1        0.0000
     30 C           5.5288    1.8898    1.7845 C.3     1  UNL1        0.0000
     31 H           6.4008    2.1526    2.3797 H       1  UNL1        0.0000
     32 H           5.3658    2.6751    1.0425 H       1  UNL1        0.0000
     33 H           5.7528    0.9583    1.2604 H       1  UNL1        0.0000
     34 C           5.4051    2.0576    5.0203 C.3     1  UNL1        0.0000
     35 H           5.8067    1.1255    5.4271 H       1  UNL1        0.0000
     36 H           5.0658    2.6713    5.8557 H       1  UNL1        0.0000
     37 H           6.2174    2.5805    4.5161 H       1  UNL1        0.0000
     38 C           2.5778    1.1960    5.9263 C.3     1  UNL1        0.0000
     39 H           1.5595    0.8268    6.0044 H       1  UNL1        0.0000
     40 H           2.6690    2.1222    6.4965 H       1  UNL1        0.0000
     41 H           3.2398    0.4592    6.3877 H       1  UNL1        0.0000
@<TRIPOS>BOND
     1    28    26    1
     2    29    26    1
     3    27    26    1
     4    26    25    1
     5    20    17    1
     6    32    30    1
     7    33    30    1
     8    30    31    1
     9    30    24    1
    10    19    17    1
    11    17    18    1
    12    17     1    1
    13    25    24    1
    14    25    21    1
    15    24    23    1
    16     5    12    1
    17     5     1    1
    18    12     2    1
    19    12    10    2
    20     2     3    1
    21     4     3    1
    22     3     6    1
    23     1    21    1
    24     1    13    1
    25    11    10    1
    26    10     8    1
    27    21    22    1
    28     6     8    2
    29     6     7    1
    30     8     9    1
    31    23    22    2
    32    23    34    1
    33    22    38    1
    34    14    13    1
    35    37    34    1
    36    13    16    1
    37    13    15    1
    38    34    35    1
    39    34    36    1
    40    38    39    1
    41    38    41    1
    42    38    40    1
