@<TRIPOS>MOLECULE
1,2,4,5,6,7,8
 43 43 0 0 0
SMALL
GASTEIGER

@<TRIPOS>ATOM
      1 N           4.2878    5.1228    2.8550 N.3     1  UNL1        0.0000
      2 N           4.6822    3.1023    1.3314 N.3     1  UNL1        0.0000
      3 SI          4.7129    6.6818    3.4723 Si      1  UNL1        0.0000
      4 C           6.0045    5.8066    4.5445 C.3     1  UNL1        0.0000
      5 C           5.6042    4.6844    5.3485 C.3     1  UNL1        0.0000
      6 C           6.7269    3.8230    5.4987 C.2     1  UNL1        0.0000
      7 C           7.7846    4.3519    4.7295 C.2     1  UNL1        0.0000
      8 C           7.3410    5.5654    4.1436 C.3     1  UNL1        0.0000
      9 C           3.2080    4.8645    1.9377 C.3     1  UNL1        0.0000
     10 H           3.3069    5.4847    1.0286 H       1  UNL1        0.0000
     11 H           2.2368    5.1027    2.3960 H       1  UNL1        0.0000
     12 C           3.2698    3.3874    1.5505 C.3     1  UNL1        0.0000
     13 H           2.9207    2.7630    2.3824 H       1  UNL1        0.0000
     14 H           2.6584    3.1795    0.6580 H       1  UNL1        0.0000
     15 C           4.9206    1.7596    0.8124 C.3     1  UNL1        0.0000
     16 H           5.9928    1.6143    0.6726 H       1  UNL1        0.0000
     17 H           4.4089    1.6047   -0.1466 H       1  UNL1        0.0000
     18 H           4.5560    1.0230    1.5291 H       1  UNL1        0.0000
     19 C           5.3598    7.8199    2.0714 C.3     1  UNL1        0.0000
     20 H           4.5323    8.1399    1.4445 H       1  UNL1        0.0000
     21 H           6.0765    7.3020    1.4390 H       1  UNL1        0.0000
     22 H           5.8317    8.7160    2.4591 H       1  UNL1        0.0000
     23 C           3.3263    7.6430    4.3822 C.3     1  UNL1        0.0000
     24 H           2.9734    8.4645    3.7684 H       1  UNL1        0.0000
     25 H           3.6752    8.0614    5.3201 H       1  UNL1        0.0000
     26 H           2.4726    7.0087    4.5993 H       1  UNL1        0.0000
     27 C           4.3161    4.5399    6.1057 C.3     1  UNL1        0.0000
     28 H           3.5848    5.2643    5.7565 H       1  UNL1        0.0000
     29 H           4.4835    4.7023    7.1731 H       1  UNL1        0.0000
     30 H           3.9026    3.5363    5.9756 H       1  UNL1        0.0000
     31 C           6.8278    2.6589    6.4380 C.3     1  UNL1        0.0000
     32 H           7.3743    1.8311    5.9856 H       1  UNL1        0.0000
     33 H           5.8410    2.3003    6.7238 H       1  UNL1        0.0000
     34 H           7.3610    2.9629    7.3423 H       1  UNL1        0.0000
     35 C           9.1736    3.8005    4.6310 C.3     1  UNL1        0.0000
     36 H           9.5803    3.9591    3.6326 H       1  UNL1        0.0000
     37 H           9.1844    2.7326    4.8440 H       1  UNL1        0.0000
     38 H           9.8295    4.2982    5.3496 H       1  UNL1        0.0000
     39 C           8.2235    6.5004    3.3754 C.3     1  UNL1        0.0000
     40 H           9.1919    6.5838    3.8702 H       1  UNL1        0.0000
     41 H           7.7749    7.4886    3.3220 H       1  UNL1        0.0000
     42 H           8.4020    6.1376    2.3607 H       1  UNL1        0.0000
     43 H           5.0385    3.7697    0.6382 H       1  UNL1        0.0000
@<TRIPOS>BOND
     1    17    15    1
     2    43     2    1
     3    14    12    1
     4    16    15    1
     5    15     2    1
     6    15    18    1
     7    10     9    1
     8     2    12    1
     9    21    19    1
    10    20    19    1
    11    12     9    1
    12    12    13    1
    13     9    11    1
    14     9     1    1
    15    19    22    1
    16    19     3    1
    17    42    39    1
    18     1     3    1
    19    41    39    1
    20    39    40    1
    21    39     8    1
    22     3    23    1
    23     3     4    1
    24    36    35    1
    25    24    23    1
    26     8     4    1
    27     8     7    1
    28    23    26    1
    29    23    25    1
    30     4     5    1
    31    35     7    1
    32    35    37    1
    33    35    38    1
    34     7     6    2
    35     5     6    1
    36     5    27    1
    37     6    31    1
    38    28    27    1
    39    30    27    1
    40    32    31    1
    41    27    29    1
    42    31    33    1
    43    31    34    1
