@<TRIPOS>MOLECULE
2,3,4,5,12,15
 46 46 0 0 0
SMALL
GASTEIGER

@<TRIPOS>ATOM
      1 C          -0.5028    4.8252    8.3516 C.3     1  UNL1        0.0000
      2 C          -0.1707    5.5518    7.1700 C.2     1  UNL1        0.0000
      3 C          -1.2849    5.5357    6.2954 C.2     1  UNL1        0.0000
      4 C          -2.3021    4.7424    6.8927 C.2     1  UNL1        0.0000
      5 C          -1.8205    4.2995    8.1510 C.2     1  UNL1        0.0000
      6 C           1.1221    6.2755    6.9045 C.3     1  UNL1        0.0000
      7 C          -1.4340    6.3183    5.0216 C.3     1  UNL1        0.0000
      8 C          -3.6797    4.5345    6.3257 C.3     1  UNL1        0.0000
      9 C          -2.5676    3.4318    9.1272 C.3     1  UNL1        0.0000
     10 SI          0.7223    3.8617    9.4354 Si      1  UNL1        0.0000
     11 C           0.1800    3.5995   11.2562 C.3     1  UNL1        0.0000
     12 N           0.6097    2.5189    8.3768 N.3     1  UNL1        0.0000
     13 C           1.2143    1.2188    8.5281 C.3     1  UNL1        0.0000
     14 C           0.9576    0.4350    7.2301 C.3     1  UNL1        0.0000
     15 N           1.0651    1.3449    6.0774 N.3     1  UNL1        0.0000
     16 C           2.4282    1.8861    5.9722 C.3     1  UNL1        0.0000
     17 C           0.7463    0.6019    4.8532 C.3     1  UNL1        0.0000
     18 C           2.5071    4.5687    9.5597 C.3     1  UNL1        0.0000
     19 H           1.6521    6.4593    7.8352 H       1  UNL1        0.0000
     20 H           0.9317    7.2374    6.4279 H       1  UNL1        0.0000
     21 H           1.7708    5.6938    6.2361 H       1  UNL1        0.0000
     22 H          -2.0092    7.2298    5.2032 H       1  UNL1        0.0000
     23 H          -1.9587    5.7370    4.2622 H       1  UNL1        0.0000
     24 H          -0.4626    6.5978    4.6181 H       1  UNL1        0.0000
     25 H          -4.3438    5.3511    6.6207 H       1  UNL1        0.0000
     26 H          -4.1139    3.5969    6.6736 H       1  UNL1        0.0000
     27 H          -3.6464    4.5062    5.2356 H       1  UNL1        0.0000
     28 H          -2.5166    3.8573   10.1286 H       1  UNL1        0.0000
     29 H          -2.1356    2.4237    9.1590 H       1  UNL1        0.0000
     30 H          -3.6164    3.3473    8.8459 H       1  UNL1        0.0000
     31 H          -0.2139    4.5107   11.6936 H       1  UNL1        0.0000
     32 H           1.0282    3.2900   11.8580 H       1  UNL1        0.0000
     33 H          -0.5808    2.8319   11.3445 H       1  UNL1        0.0000
     34 H           0.7761    0.6640    9.3739 H       1  UNL1        0.0000
     35 H           2.2992    1.2855    8.7237 H       1  UNL1        0.0000
     36 H           1.6645   -0.4048    7.1319 H       1  UNL1        0.0000
     37 H          -0.0676    0.0438    7.2463 H       1  UNL1        0.0000
     38 H           3.1700    1.0743    5.9565 H       1  UNL1        0.0000
     39 H           2.6328    2.5498    6.8194 H       1  UNL1        0.0000
     40 H           2.5152    2.4599    5.0465 H       1  UNL1        0.0000
     41 H           1.4454   -0.2334    4.7098 H       1  UNL1        0.0000
     42 H           0.8075    1.2697    3.9925 H       1  UNL1        0.0000
     43 H          -0.2706    0.2095    4.9162 H       1  UNL1        0.0000
     44 H           2.5218    5.5525   10.0151 H       1  UNL1        0.0000
     45 H           2.9987    4.6362    8.5931 H       1  UNL1        0.0000
     46 H           3.1083    3.9182   10.1874 H       1  UNL1        0.0000
@<TRIPOS>BOND
     1    42    17    1
     2    23     7    1
     3    24     7    1
     4    41    17    1
     5    17    43    1
     6    17    15    1
     7     7    22    1
     8     7     3    1
     9    40    16    1
    10    27     8    1
    11    38    16    1
    12    16    15    1
    13    16    39    1
    14    15    14    1
    15    21     6    1
    16     3     4    1
    17     3     2    2
    18     8    25    1
    19     8    26    1
    20     8     4    1
    21    20     6    1
    22     4     5    2
    23     6     2    1
    24     6    19    1
    25    36    14    1
    26     2     1    1
    27    14    37    1
    28    14    13    1
    29     5     1    1
    30     5     9    1
    31     1    10    1
    32    12    13    1
    33    12    10    1
    34    13    35    1
    35    13    34    1
    36    45    18    1
    37    30     9    1
    38     9    29    1
    39     9    28    1
    40    10    18    1
    41    10    11    1
    42    18    44    1
    43    18    46    1
    44    11    33    1
    45    11    31    1
    46    11    32    1
