@<TRIPOS>MOLECULE
1,8,10
 44 46 0 0 0
SMALL
GASTEIGER

@<TRIPOS>ATOM
      1 C           2.9041    3.2279    3.4630 C.3     1  UNL1        0.0000
      2 C           1.9918    2.9952    4.5890 C.2     1  UNL1        0.0000
      3 C           0.6979    3.3547    4.6105 C.2     1  UNL1        0.0000
      4 C          -0.3257    2.8124    5.5509 C.3     1  UNL1        0.0000
      5 B          -1.6370    2.0865    4.8067 B       1  UNL1        0.0000
      6 C          -1.4648    0.5205    4.2694 C.ar    1  UNL1        0.0000
      7 C          -0.2727    0.0557    3.7497 C.ar    1  UNL1        0.0000
      8 F           0.9332    0.6858    4.0072 F       1  UNL1        0.0000
      9 C          -0.1165   -0.9826    2.8457 C.ar    1  UNL1        0.0000
     10 F           1.1118   -1.0354    2.2267 F       1  UNL1        0.0000
     11 C          -1.1839   -1.8049    2.5457 C.ar    1  UNL1        0.0000
     12 F          -1.0841   -2.8054    1.6755 F       1  UNL1        0.0000
     13 C          -2.3806   -1.5185    3.2081 C.ar    1  UNL1        0.0000
     14 F          -3.4345   -2.3090    3.0135 F       1  UNL1        0.0000
     15 C          -2.5105   -0.3847    4.0127 C.ar    1  UNL1        0.0000
     16 F          -3.7191   -0.2173    4.5430 F       1  UNL1        0.0000
     17 C          -2.9557    2.1092    5.7805 C.ar    1  UNL1        0.0000
     18 C          -4.2598    2.2272    5.3014 C.ar    1  UNL1        0.0000
     19 F          -4.4830    2.2735    3.9734 F       1  UNL1        0.0000
     20 C          -5.3821    2.2656    6.1170 C.ar    1  UNL1        0.0000
     21 F          -6.6015    2.3928    5.5820 F       1  UNL1        0.0000
     22 C          -5.2345    2.1588    7.4941 C.ar    1  UNL1        0.0000
     23 F          -6.3001    2.1949    8.2997 F       1  UNL1        0.0000
     24 C          -3.9596    1.9903    8.0135 C.ar    1  UNL1        0.0000
     25 F          -3.7865    1.8464    9.3345 F       1  UNL1        0.0000
     26 C          -2.8606    1.9627    7.1599 C.ar    1  UNL1        0.0000
     27 F          -1.6660    1.7522    7.7388 F       1  UNL1        0.0000
     28 C          -1.8540    2.9851    3.4456 C.ar    1  UNL1        0.0000
     29 C          -2.6809    4.1138    3.4328 C.ar    1  UNL1        0.0000
     30 F          -3.2510    4.5437    4.5640 F       1  UNL1        0.0000
     31 C          -2.9268    4.8833    2.3001 C.ar    1  UNL1        0.0000
     32 F          -3.7492    5.9307    2.3683 F       1  UNL1        0.0000
     33 C          -2.3079    4.5664    1.0962 C.ar    1  UNL1        0.0000
     34 F          -2.5535    5.2636   -0.0141 F       1  UNL1        0.0000
     35 C          -1.3810    3.5345    1.0953 C.ar    1  UNL1        0.0000
     36 F          -0.6955    3.2366   -0.0181 F       1  UNL1        0.0000
     37 C          -1.1484    2.8114    2.2575 C.ar    1  UNL1        0.0000
     38 F          -0.0521    1.9457    2.1806 F       1  UNL1        0.0000
     39 H           2.5234    4.0358    2.8206 H       1  UNL1        0.0000
     40 H           3.9245    3.4714    3.7871 H       1  UNL1        0.0000
     41 H           2.3818    2.4333    5.4381 H       1  UNL1        0.0000
     42 H           0.3461    4.0469    3.8522 H       1  UNL1        0.0000
     43 H          -0.7402    3.6383    6.1325 H       1  UNL1        0.0000
     44 H           0.1594    2.1349    6.2517 H       1  UNL1        0.0000
@<TRIPOS>BOND
     1    36    35    1
     2    34    33    1
     3    35    33   ar
     4    35    37   ar
     5    33    31   ar
     6    12    11    1
     7    38    37    1
     8    10     9    1
     9    37    28   ar
    10    31    32    1
    11    31    29   ar
    12    11     9   ar
    13    11    13   ar
    14    39     1    1
    15     9     7   ar
    16    14    13    1
    17    13    15   ar
    18    29    28   ar
    19    29    30    1
    20    28     5    1
    21     1    40    1
    22     1     2    1
    23     7     8    1
    24     7     6   ar
    25    42     3    1
    26    19    18    1
    27    15     6   ar
    28    15    16    1
    29     6     5    1
    30     2     3    2
    31     2    41    1
    32     3     4    1
    33     5     4    1
    34     5    17    1
    35    18    17   ar
    36    18    20   ar
    37     4    43    1
    38     4    44    1
    39    21    20    1
    40    17    26   ar
    41    20    22   ar
    42    26    27    1
    43    26    24   ar
    44    22    24   ar
    45    22    23    1
    46    24    25    1
