@<TRIPOS>MOLECULE
2,6,7,8
 60 61 0 0 0
SMALL
GASTEIGER

@<TRIPOS>ATOM
      1 S           2.2111   10.1479   13.3444 S.3     1  UNL1        0.0000
      2 S           4.7594   13.4985   11.6357 S.3     1  UNL1        0.0000
      3 SI          3.8279    8.7521   13.1676 Si      1  UNL1        0.0000
      4 SI          4.8167   11.0793    9.5904 Si      1  UNL1        0.0000
      5 O           4.9390    9.7128   12.3640 O.3     1  UNL1        0.0000
      6 O           4.8087   11.5566   13.6453 O.3     1  UNL1        0.0000
      7 C           4.8256   11.0299   12.5032 C.3     1  UNL1        0.0000
      8 C           4.6009   11.7822   11.3399 C.3     1  UNL1        0.0000
      9 C           4.5700   12.5692    8.4291 C.3     1  UNL1        0.0000
     10 H           5.3121   13.3431    8.6037 H       1  UNL1        0.0000
     11 H           3.5902   13.0139    8.5864 H       1  UNL1        0.0000
     12 H           4.6377   12.2677    7.3894 H       1  UNL1        0.0000
     13 C           6.5923   10.3854    9.4911 C.3     1  UNL1        0.0000
     14 H           6.7327    9.5718   10.1962 H       1  UNL1        0.0000
     15 H           7.3347   11.1479    9.7094 H       1  UNL1        0.0000
     16 H           6.7928   10.0018    8.4965 H       1  UNL1        0.0000
     17 C           3.5186    9.7335    9.2359 C.3     1  UNL1        0.0000
     18 H           3.5421    9.4492    8.1888 H       1  UNL1        0.0000
     19 H           2.5173   10.0978    9.4549 H       1  UNL1        0.0000
     20 H           3.6920    8.8381    9.8255 H       1  UNL1        0.0000
     21 C           3.6063    7.2929   11.9659 C.ar    1  UNL1        0.0000
     22 C           2.4064    6.9763   11.3104 C.ar    1  UNL1        0.0000
     23 C           2.3373    5.8437   10.5098 C.ar    1  UNL1        0.0000
     24 H           1.4082    5.6168   10.0058 H       1  UNL1        0.0000
     25 C           3.4199    4.9985   10.3333 C.ar    1  UNL1        0.0000
     26 C           4.6018    5.3172   10.9822 C.ar    1  UNL1        0.0000
     27 H           5.4639    4.6766   10.8573 H       1  UNL1        0.0000
     28 C           4.7052    6.4403   11.7874 C.ar    1  UNL1        0.0000
     29 C           1.1724    7.8168   11.4213 C.3     1  UNL1        0.0000
     30 H           0.7906    7.8173   12.4398 H       1  UNL1        0.0000
     31 H           0.3951    7.4349   10.7640 H       1  UNL1        0.0000
     32 H           1.3712    8.8512   11.1514 H       1  UNL1        0.0000
     33 C           3.3104    3.7705    9.4829 C.3     1  UNL1        0.0000
     34 H           2.9562    2.9331   10.0854 H       1  UNL1        0.0000
     35 H           4.2773    3.4998    9.0653 H       1  UNL1        0.0000
     36 H           2.6029    3.9232    8.6712 H       1  UNL1        0.0000
     37 C           6.0185    6.7208   12.4498 C.3     1  UNL1        0.0000
     38 H           6.7944    6.0668   12.0581 H       1  UNL1        0.0000
     39 H           5.9434    6.5603   13.5248 H       1  UNL1        0.0000
     40 H           6.3127    7.7526   12.2768 H       1  UNL1        0.0000
     41 C           4.2982    8.1588   14.9154 C.ar    1  UNL1        0.0000
     42 C           3.3829    7.3071   15.5555 C.ar    1  UNL1        0.0000
     43 C           3.6581    6.8014   16.8144 C.ar    1  UNL1        0.0000
     44 H           2.9407    6.1477   17.2907 H       1  UNL1        0.0000
     45 C           4.8344    7.1142   17.4805 C.ar    1  UNL1        0.0000
     46 C           5.7345    7.9529   16.8475 C.ar    1  UNL1        0.0000
     47 H           6.6585    8.2083   17.3483 H       1  UNL1        0.0000
     48 C           5.4905    8.4761   15.5835 C.ar    1  UNL1        0.0000
     49 C           2.0949    6.9289   14.8948 C.3     1  UNL1        0.0000
     50 H           1.5500    7.8202   14.5917 H       1  UNL1        0.0000
     51 H           1.4699    6.3509   15.5712 H       1  UNL1        0.0000
     52 H           2.2864    6.3338   14.0038 H       1  UNL1        0.0000
     53 C           5.1083    6.5535   18.8422 C.3     1  UNL1        0.0000
     54 H           4.3371    6.8700   19.5435 H       1  UNL1        0.0000
     55 H           6.0744    6.8848   19.2146 H       1  UNL1        0.0000
     56 H           5.1011    5.4646   18.8109 H       1  UNL1        0.0000
     57 C           6.5348    9.3647   14.9821 C.3     1  UNL1        0.0000
     58 H           7.3362    9.5509   15.6941 H       1  UNL1        0.0000
     59 H           6.1050   10.3196   14.6905 H       1  UNL1        0.0000
     60 H           6.9659    8.9123   14.0907 H       1  UNL1        0.0000
@<TRIPOS>BOND
     1    12     9    1
     2    18    17    1
     3     9    11    1
     4     9    10    1
     5     9     4    1
     6    16    13    1
     7    36    33    1
     8    35    33    1
     9    17    19    1
    10    17     4    1
    11    17    20    1
    12    33    34    1
    13    33    25    1
    14    13     4    1
    15    13    15    1
    16    13    14    1
    17     4     8    1
    18    24    23    1
    19    25    23   ar
    20    25    26   ar
    21    23    22   ar
    22    31    29    1
    23    27    26    1
    24    26    28   ar
    25    32    29    1
    26    22    29    1
    27    22    21   ar
    28     8     2    1
    29     8     7    1
    30    29    30    1
    31    28    21   ar
    32    28    37    1
    33    21     3    1
    34    38    37    1
    35    40    37    1
    36     5     7    1
    37     5     3    1
    38    37    39    1
    39     7     6    1
    40     3     1    1
    41     3    41    1
    42    52    49    1
    43    60    57    1
    44    50    49    1
    45    59    57    1
    46    49    42    1
    47    49    51    1
    48    41    42   ar
    49    41    48   ar
    50    57    48    1
    51    57    58    1
    52    42    43   ar
    53    48    46   ar
    54    43    44    1
    55    43    45   ar
    56    46    47    1
    57    46    45   ar
    58    45    53    1
    59    56    53    1
    60    53    55    1
    61    53    54    1
