@<TRIPOS>MOLECULE
1,2
 95 98 0 0 0
SMALL
GASTEIGER

@<TRIPOS>ATOM
      1 P           4.1120    2.9375    2.6327 P.3     1  UNL1        0.0000
      2 P           3.6829    5.8820    5.3226 P.3     1  UNL1        0.0000
      3 SI          1.9370    4.9200    1.3047 Si      1  UNL1        0.0000
      4 SI          1.1909    6.7405    3.6587 Si      1  UNL1        0.0000
      5 O           1.9827    5.5191    2.8404 O.3     1  UNL1        0.0000
      6 C           2.4570    6.2699    0.0662 C.3     1  UNL1        0.0000
      7 C           0.1923    4.3206    0.8493 C.3     1  UNL1        0.0000
      8 C           3.2784    3.5447    1.1119 C.3     1  UNL1        0.0000
      9 C           5.8651    3.5478    2.4375 C.3     1  UNL1        0.0000
     10 C           6.6555    3.1716    3.6906 C.3     1  UNL1        0.0000
     11 C           8.0255    3.8437    3.6774 C.3     1  UNL1        0.0000
     12 C           8.7961    3.4429    2.4220 C.3     1  UNL1        0.0000
     13 C           8.0001    3.7916    1.1673 C.3     1  UNL1        0.0000
     14 C           6.6298    3.1136    1.1878 C.3     1  UNL1        0.0000
     15 C           4.3530    1.0835    2.4895 C.3     1  UNL1        0.0000
     16 C           4.1891    0.4380    3.8677 C.3     1  UNL1        0.0000
     17 C           4.5657   -1.0380    3.8121 C.3     1  UNL1        0.0000
     18 C           3.6868   -1.7597    2.7959 C.3     1  UNL1        0.0000
     19 C           3.8378   -1.1180    1.4212 C.3     1  UNL1        0.0000
     20 C           3.4761    0.3665    1.4653 C.3     1  UNL1        0.0000
     21 C           1.2200    8.3077    2.5685 C.3     1  UNL1        0.0000
     22 C          -0.6611    6.3934    3.9299 C.3     1  UNL1        0.0000
     23 C           2.3434    7.1218    5.1572 C.3     1  UNL1        0.0000
     24 C           5.1367    6.7009    4.4804 C.3     1  UNL1        0.0000
     25 C           4.7847    7.0523    3.0376 C.3     1  UNL1        0.0000
     26 C           6.0083    7.5690    2.2863 C.3     1  UNL1        0.0000
     27 C           6.5656    8.8047    2.9847 C.3     1  UNL1        0.0000
     28 C           6.9046    8.4776    4.4351 C.3     1  UNL1        0.0000
     29 C           5.6806    7.9466    5.1825 C.3     1  UNL1        0.0000
     30 C           4.1719    5.9152    7.1143 C.3     1  UNL1        0.0000
     31 C           5.4617    5.1127    7.2927 C.3     1  UNL1        0.0000
     32 C           5.8961    5.0877    8.7559 C.3     1  UNL1        0.0000
     33 C           4.7956    4.4993    9.6294 C.3     1  UNL1        0.0000
     34 C           3.5141    5.3058    9.4599 C.3     1  UNL1        0.0000
     35 C           3.0839    5.3057    7.9965 C.3     1  UNL1        0.0000
     36 H           3.3852    6.7683    0.3257 H       1  UNL1        0.0000
     37 H           2.5844    5.8273   -0.9158 H       1  UNL1        0.0000
     38 H           1.6890    7.0286   -0.0213 H       1  UNL1        0.0000
     39 H          -0.5203    5.1368    0.9334 H       1  UNL1        0.0000
     40 H           0.1672    3.9645   -0.1762 H       1  UNL1        0.0000
     41 H          -0.1530    3.5124    1.4873 H       1  UNL1        0.0000
     42 H           4.0456    3.8785    0.4127 H       1  UNL1        0.0000
     43 H           2.7726    2.6915    0.6636 H       1  UNL1        0.0000
     44 H           5.7745    4.6384    2.4056 H       1  UNL1        0.0000
     45 H           6.0794    3.4564    4.5772 H       1  UNL1        0.0000
     46 H           6.7955    2.0899    3.7237 H       1  UNL1        0.0000
     47 H           7.9066    4.9299    3.6947 H       1  UNL1        0.0000
     48 H           8.5876    3.5570    4.5677 H       1  UNL1        0.0000
     49 H           9.7637    3.9485    2.3978 H       1  UNL1        0.0000
     50 H           8.9828    2.3671    2.4427 H       1  UNL1        0.0000
     51 H           7.8694    4.8750    1.1079 H       1  UNL1        0.0000
     52 H           8.5516    3.4760    0.2788 H       1  UNL1        0.0000
     53 H           6.7787    2.0327    1.1830 H       1  UNL1        0.0000
     54 H           6.0832    3.3767    0.2790 H       1  UNL1        0.0000
     55 H           5.3976    0.9548    2.1821 H       1  UNL1        0.0000
     56 H           4.7979    0.9703    4.6032 H       1  UNL1        0.0000
     57 H           3.1519    0.5323    4.1927 H       1  UNL1        0.0000
     58 H           5.6162   -1.1444    3.5273 H       1  UNL1        0.0000
     59 H           4.4395   -1.4831    4.7996 H       1  UNL1        0.0000
     60 H           3.9568   -2.8167    2.7436 H       1  UNL1        0.0000
     61 H           2.6448   -1.6921    3.1128 H       1  UNL1        0.0000
     62 H           4.8716   -1.2287    1.0816 H       1  UNL1        0.0000
     63 H           3.1945   -1.6253    0.6987 H       1  UNL1        0.0000
     64 H           2.4262    0.4751    1.7407 H       1  UNL1        0.0000
     65 H           3.6259    0.7890    0.4676 H       1  UNL1        0.0000
     66 H           2.1829    8.5521    2.1350 H       1  UNL1        0.0000
     67 H           0.5141    8.2055    1.7518 H       1  UNL1        0.0000
     68 H           0.8985    9.1572    3.1613 H       1  UNL1        0.0000
     69 H          -0.9578    6.6000    4.9531 H       1  UNL1        0.0000
     70 H          -1.2590    7.0200    3.2742 H       1  UNL1        0.0000
     71 H          -0.9146    5.3563    3.7346 H       1  UNL1        0.0000
     72 H           2.7862    8.1156    5.0872 H       1  UNL1        0.0000
     73 H           1.7561    7.0808    6.0726 H       1  UNL1        0.0000
     74 H           5.9188    5.9326    4.4726 H       1  UNL1        0.0000
     75 H           4.3704    6.1767    2.5337 H       1  UNL1        0.0000
     76 H           4.0181    7.8285    3.0333 H       1  UNL1        0.0000
     77 H           6.7799    6.7955    2.2562 H       1  UNL1        0.0000
     78 H           5.7393    7.8117    1.2552 H       1  UNL1        0.0000
     79 H           7.4573    9.1603    2.4646 H       1  UNL1        0.0000
     80 H           5.8218    9.6045    2.9564 H       1  UNL1        0.0000
     81 H           7.6960    7.7245    4.4611 H       1  UNL1        0.0000
     82 H           7.2799    9.3707    4.9389 H       1  UNL1        0.0000
     83 H           4.9162    8.7264    5.2112 H       1  UNL1        0.0000
     84 H           5.9708    7.7206    6.2079 H       1  UNL1        0.0000
     85 H           4.3176    6.9657    7.3984 H       1  UNL1        0.0000
     86 H           5.2560    4.0944    6.9473 H       1  UNL1        0.0000
     87 H           6.2700    5.5249    6.6868 H       1  UNL1        0.0000
     88 H           6.8081    4.4960    8.8535 H       1  UNL1        0.0000
     89 H           6.1200    6.1054    9.0887 H       1  UNL1        0.0000
     90 H           4.6103    3.4689    9.3241 H       1  UNL1        0.0000
     91 H           5.1066    4.4983   10.6761 H       1  UNL1        0.0000
     92 H           2.7189    4.8760   10.0707 H       1  UNL1        0.0000
     93 H           3.6793    6.3330    9.7977 H       1  UNL1        0.0000
     94 H           2.1465    5.8541    7.8906 H       1  UNL1        0.0000
     95 H           2.9141    4.2763    7.6671 H       1  UNL1        0.0000
@<TRIPOS>BOND
     1    37     6    1
     2    40     7    1
     3    38     6    1
     4     6    36    1
     5     6     3    1
     6    52    13    1
     7    54    14    1
     8    42     8    1
     9    65    20    1
    10    43     8    1
    11    63    19    1
    12     7    39    1
    13     7     3    1
    14     7    41    1
    15    62    19    1
    16    51    13    1
    17     8     3    1
    18     8     1    1
    19    13    14    1
    20    13    12    1
    21    53    14    1
    22    14     9    1
    23    78    26    1
    24     3     5    1
    25    19    20    1
    26    19    18    1
    27    20    64    1
    28    20    15    1
    29    67    21    1
    30    66    21    1
    31    55    15    1
    32    77    26    1
    33    26    27    1
    34    26    25    1
    35    49    12    1
    36    44     9    1
    37    12    50    1
    38    12    11    1
    39     9     1    1
    40     9    10    1
    41    79    27    1
    42    15     1    1
    43    15    16    1
    44    75    25    1
    45    21    68    1
    46    21     4    1
    47    60    18    1
    48    18    61    1
    49    18    17    1
    50     5     4    1
    51    80    27    1
    52    27    28    1
    53    76    25    1
    54    25    24    1
    55    70    22    1
    56    58    17    1
    57     4    22    1
    58     4    23    1
    59    11    10    1
    60    11    47    1
    61    11    48    1
    62    10    46    1
    63    10    45    1
    64    71    22    1
    65    17    16    1
    66    17    59    1
    67    16    57    1
    68    16    56    1
    69    22    69    1
    70    28    81    1
    71    28    82    1
    72    28    29    1
    73    74    24    1
    74    24    29    1
    75    24     2    1
    76    72    23    1
    77    23     2    1
    78    23    73    1
    79    29    83    1
    80    29    84    1
    81     2    30    1
    82    87    31    1
    83    86    31    1
    84    30    31    1
    85    30    85    1
    86    30    35    1
    87    31    32    1
    88    95    35    1
    89    94    35    1
    90    35    34    1
    91    32    88    1
    92    32    89    1
    93    32    33    1
    94    90    33    1
    95    34    33    1
    96    34    93    1
    97    34    92    1
    98    33    91    1
