@<TRIPOS>MOLECULE
1,2
 95 98 0 0 0
SMALL
GASTEIGER

@<TRIPOS>ATOM
      1 P          -0.2858    5.0782    3.1110 P.3     1  UNL1        0.0000
      2 P           2.7664    8.5726    4.3712 P.3     1  UNL1        0.0000
      3 SI         -0.2619    5.1597    6.2588 Si      1  UNL1        0.0000
      4 SI          1.8920    7.1649    7.0449 Si      1  UNL1        0.0000
      5 O           0.9133    6.3076    6.0126 O.3     1  UNL1        0.0000
      6 C           0.2677    4.0023    7.6629 C.3     1  UNL1        0.0000
      7 C          -1.9088    6.0394    6.6209 C.3     1  UNL1        0.0000
      8 C          -0.2763    4.1026    4.6621 C.3     1  UNL1        0.0000
      9 C          -0.0106    3.8544    1.7276 C.3     1  UNL1        0.0000
     10 C           0.8131    4.5238    0.6243 C.3     1  UNL1        0.0000
     11 C           0.9272    3.6073   -0.5880 C.3     1  UNL1        0.0000
     12 C           1.5729    2.2861   -0.1829 C.3     1  UNL1        0.0000
     13 C           0.7618    1.6198    0.9233 C.3     1  UNL1        0.0000
     14 C           0.6467    2.5380    2.1392 C.3     1  UNL1        0.0000
     15 C          -2.0477    5.6057    2.8905 C.3     1  UNL1        0.0000
     16 C          -2.1730    6.3510    1.5591 C.3     1  UNL1        0.0000
     17 C          -3.5502    6.9964    1.4545 C.3     1  UNL1        0.0000
     18 C          -4.6368    5.9310    1.5688 C.3     1  UNL1        0.0000
     19 C          -4.4956    5.1580    2.8769 C.3     1  UNL1        0.0000
     20 C          -3.1122    4.5167    2.9879 C.3     1  UNL1        0.0000
     21 C           3.4286    6.1111    7.4280 C.3     1  UNL1        0.0000
     22 C           0.9177    7.6372    8.5997 C.3     1  UNL1        0.0000
     23 C           2.2977    8.7963    6.1288 C.3     1  UNL1        0.0000
     24 C           2.5230   10.2829    3.6837 C.3     1  UNL1        0.0000
     25 C           3.4843   11.3540    4.1886 C.3     1  UNL1        0.0000
     26 C           2.9880   12.7230    3.7242 C.3     1  UNL1        0.0000
     27 C           2.8934   12.7697    2.2013 C.3     1  UNL1        0.0000
     28 C           1.9833   11.6596    1.6807 C.3     1  UNL1        0.0000
     29 C           2.4831   10.2989    2.1557 C.3     1  UNL1        0.0000
     30 C           4.5534    8.0851    4.4063 C.3     1  UNL1        0.0000
     31 C           5.0843    8.0376    2.9725 C.3     1  UNL1        0.0000
     32 C           6.4189    7.3009    2.9470 C.3     1  UNL1        0.0000
     33 C           7.4171    7.9963    3.8694 C.3     1  UNL1        0.0000
     34 C           6.8678    8.0913    5.2906 C.3     1  UNL1        0.0000
     35 C           5.5295    8.8320    5.3097 C.3     1  UNL1        0.0000
     36 H          -0.4461    3.1928    7.7639 H       1  UNL1        0.0000
     37 H           1.2460    3.5632    7.4928 H       1  UNL1        0.0000
     38 H           0.2993    4.5271    8.6108 H       1  UNL1        0.0000
     39 H          -1.9731    6.2903    7.6758 H       1  UNL1        0.0000
     40 H          -2.0269    6.9641    6.0606 H       1  UNL1        0.0000
     41 H          -2.7540    5.3984    6.3889 H       1  UNL1        0.0000
     42 H          -1.1182    3.4105    4.6624 H       1  UNL1        0.0000
     43 H           0.6410    3.5078    4.6424 H       1  UNL1        0.0000
     44 H          -1.0090    3.6284    1.3303 H       1  UNL1        0.0000
     45 H           0.3631    5.4803    0.3453 H       1  UNL1        0.0000
     46 H           1.8139    4.7451    1.0025 H       1  UNL1        0.0000
     47 H          -0.0666    3.4174   -1.0028 H       1  UNL1        0.0000
     48 H           1.5246    4.0957   -1.3589 H       1  UNL1        0.0000
     49 H           1.6421    1.6202   -1.0455 H       1  UNL1        0.0000
     50 H           2.5843    2.4782    0.1795 H       1  UNL1        0.0000
     51 H          -0.2386    1.3839    0.5493 H       1  UNL1        0.0000
     52 H           1.2361    0.6826    1.2216 H       1  UNL1        0.0000
     53 H           1.6465    2.7278    2.5338 H       1  UNL1        0.0000
     54 H           0.0548    2.0350    2.9081 H       1  UNL1        0.0000
     55 H          -2.2346    6.3258    3.6977 H       1  UNL1        0.0000
     56 H          -1.3896    7.1124    1.4858 H       1  UNL1        0.0000
     57 H          -2.0393    5.6536    0.7289 H       1  UNL1        0.0000
     58 H          -3.6639    7.7307    2.2541 H       1  UNL1        0.0000
     59 H          -3.6402    7.5212    0.5021 H       1  UNL1        0.0000
     60 H          -5.6234    6.3960    1.5215 H       1  UNL1        0.0000
     61 H          -4.5544    5.2374    0.7281 H       1  UNL1        0.0000
     62 H          -4.6410    5.8430    3.7156 H       1  UNL1        0.0000
     63 H          -5.2642    4.3838    2.9385 H       1  UNL1        0.0000
     64 H          -2.9902    3.7873    2.1836 H       1  UNL1        0.0000
     65 H          -3.0422    3.9836    3.9394 H       1  UNL1        0.0000
     66 H           3.2134    5.4154    8.2340 H       1  UNL1        0.0000
     67 H           3.7622    5.5242    6.5750 H       1  UNL1        0.0000
     68 H           4.2593    6.7319    7.7499 H       1  UNL1        0.0000
     69 H           1.5220    8.2742    9.2355 H       1  UNL1        0.0000
     70 H           0.0013    8.1716    8.3686 H       1  UNL1        0.0000
     71 H           0.6537    6.7587    9.1772 H       1  UNL1        0.0000
     72 H           3.0873    9.3396    6.6474 H       1  UNL1        0.0000
     73 H           1.4068    9.4312    6.1284 H       1  UNL1        0.0000
     74 H           1.5130   10.5448    4.0341 H       1  UNL1        0.0000
     75 H           3.5547   11.3361    5.2791 H       1  UNL1        0.0000
     76 H           4.4797   11.1846    3.7744 H       1  UNL1        0.0000
     77 H           2.0027   12.9158    4.1546 H       1  UNL1        0.0000
     78 H           3.6675   13.5011    4.0799 H       1  UNL1        0.0000
     79 H           2.5128   13.7431    1.8858 H       1  UNL1        0.0000
     80 H           3.8919   12.6478    1.7742 H       1  UNL1        0.0000
     81 H           0.9662   11.8177    2.0447 H       1  UNL1        0.0000
     82 H           1.9560   11.6814    0.5904 H       1  UNL1        0.0000
     83 H           3.4775   10.1148    1.7476 H       1  UNL1        0.0000
     84 H           1.8259    9.5001    1.7919 H       1  UNL1        0.0000
     85 H           4.5174    7.0495    4.7744 H       1  UNL1        0.0000
     86 H           4.3547    7.5380    2.3248 H       1  UNL1        0.0000
     87 H           5.2274    9.0535    2.5986 H       1  UNL1        0.0000
     88 H           6.2654    6.2709    3.2740 H       1  UNL1        0.0000
     89 H           6.8085    7.2748    1.9282 H       1  UNL1        0.0000
     90 H           8.3616    7.4492    3.8769 H       1  UNL1        0.0000
     91 H           7.6180    9.0026    3.4928 H       1  UNL1        0.0000
     92 H           6.7283    7.0839    5.6895 H       1  UNL1        0.0000
     93 H           7.5833    8.6110    5.9323 H       1  UNL1        0.0000
     94 H           5.6834    9.8523    4.9584 H       1  UNL1        0.0000
     95 H           5.1600    8.8789    6.3370 H       1  UNL1        0.0000
@<TRIPOS>BOND
     1    48    11    1
     2    49    12    1
     3    47    11    1
     4    11    12    1
     5    11    10    1
     6    12    50    1
     7    12    13    1
     8    45    10    1
     9    59    17    1
    10    51    13    1
    11    82    28    1
    12    10    46    1
    13    10     9    1
    14    61    18    1
    15    57    16    1
    16    13    52    1
    17    13    14    1
    18    44     9    1
    19    17    16    1
    20    17    18    1
    21    17    58    1
    22    56    16    1
    23    60    18    1
    24    16    15    1
    25    18    19    1
    26    28    81    1
    27    28    29    1
    28    28    27    1
    29     9    14    1
    30     9     1    1
    31    83    29    1
    32    80    27    1
    33    84    29    1
    34    79    27    1
    35    89    32    1
    36    14    53    1
    37    14    54    1
    38    29    24    1
    39    64    20    1
    40    27    26    1
    41    86    31    1
    42    87    31    1
    43    19    63    1
    44    19    20    1
    45    19    62    1
    46    15    20    1
    47    15     1    1
    48    15    55    1
    49    32    31    1
    50    32    88    1
    51    32    33    1
    52    31    30    1
    53    20    65    1
    54     1     8    1
    55    91    33    1
    56    24    74    1
    57    24    25    1
    58    24     2    1
    59    26    78    1
    60    26    77    1
    61    26    25    1
    62    76    25    1
    63    33    90    1
    64    33    34    1
    65    25    75    1
    66     2    30    1
    67     2    23    1
    68    30    85    1
    69    30    35    1
    70    43     8    1
    71     8    42    1
    72     8     3    1
    73    94    35    1
    74    34    35    1
    75    34    92    1
    76    34    93    1
    77    35    95    1
    78     5     3    1
    79     5     4    1
    80    40     7    1
    81    73    23    1
    82    23    72    1
    83    23     4    1
    84     3     7    1
    85     3     6    1
    86    41     7    1
    87    67    21    1
    88     7    39    1
    89     4    21    1
    90     4    22    1
    91    21    68    1
    92    21    66    1
    93    37     6    1
    94     6    36    1
    95     6    38    1
    96    70    22    1
    97    22    71    1
    98    22    69    1
