@<TRIPOS>MOLECULE
1,2
 24 23 0 0 0
SMALL
GASTEIGER

@<TRIPOS>ATOM
      1 P           9.6094    7.6490    4.6079 P.3     1  UNL1       -0.1119
      2 P           9.8808    4.9424    5.7835 P.3     1  UNL1       -0.1119
      3 C          11.2650    7.2066    5.2887 C.3     1  UNL1       -0.0288
      4 H          12.0584    7.7765    4.7940 H       1  UNL1        0.0316
      5 H          11.2519    7.4630    6.3539 H       1  UNL1        0.0316
      6 C          11.4165    5.7070    5.1074 C.3     1  UNL1       -0.0288
      7 H          12.3064    5.3069    5.6045 H       1  UNL1        0.0316
      8 H          11.4581    5.4535    4.0422 H       1  UNL1        0.0316
      9 C          10.0441    7.8835    2.8441 C.3     1  UNL1       -0.0445
     10 H          10.8571    8.6045    2.7495 H       1  UNL1        0.0277
     11 H           9.1723    8.2350    2.2965 H       1  UNL1        0.0277
     12 H          10.3367    6.9216    2.4258 H       1  UNL1        0.0277
     13 C           9.4968    9.3891    5.1600 C.3     1  UNL1       -0.0445
     14 H           9.2176    9.3969    6.2133 H       1  UNL1        0.0277
     15 H           8.7388    9.9125    4.5771 H       1  UNL1        0.0277
     16 H          10.4609    9.8810    5.0245 H       1  UNL1        0.0277
     17 C          10.1192    3.2151    5.2308 C.3     1  UNL1       -0.0445
     18 H          11.1624    2.9266    5.3661 H       1  UNL1        0.0277
     19 H           9.8469    3.1515    4.1777 H       1  UNL1        0.0277
     20 H           9.4818    2.5504    5.8140 H       1  UNL1        0.0277
     21 C          10.3494    4.7977    7.5483 C.3     1  UNL1       -0.0445
     22 H           9.5641    4.2789    8.0937 H       1  UNL1        0.0277
     23 H          10.4434    5.7982    7.9678 H       1  UNL1        0.0277
     24 H          11.2896    4.2533    7.6444 H       1  UNL1        0.0277
@<TRIPOS>BOND
     1    11     9    1
     2    12     9    1
     3    10     9    1
     4     9     1    1
     5     8     6    1
     6    19    17    1
     7    15    13    1
     8     1    13    1
     9     1     3    1
    10     4     3    1
    11    16    13    1
    12     6     3    1
    13     6     7    1
    14     6     2    1
    15    13    14    1
    16    17    18    1
    17    17     2    1
    18    17    20    1
    19     3     5    1
    20     2    21    1
    21    21    24    1
    22    21    23    1
    23    21    22    1
