@<TRIPOS>MOLECULE
1,2
 24 23 0 0 0
SMALL
GASTEIGER

@<TRIPOS>ATOM
      1 P           6.5284    7.3062    4.5366 P.3     1  UNL1       -0.1119
      2 P           6.7930    4.6641    5.8484 P.3     1  UNL1       -0.1119
      3 C           5.0230    6.2411    4.5568 C.3     1  UNL1       -0.0288
      4 H           4.1120    6.8466    4.5055 H       1  UNL1        0.0316
      5 H           5.0743    5.5976    3.6715 H       1  UNL1        0.0316
      6 C           5.1051    5.4068    5.8224 C.3     1  UNL1       -0.0288
      7 H           4.3334    4.6314    5.8707 H       1  UNL1        0.0316
      8 H           5.0234    6.0473    6.7076 H       1  UNL1        0.0316
      9 C           6.3967    8.0045    2.8512 C.3     1  UNL1       -0.0445
     10 H           5.3578    8.2603    2.6386 H       1  UNL1        0.0277
     11 H           6.7505    7.2562    2.1425 H       1  UNL1        0.0277
     12 H           7.0127    8.9004    2.7742 H       1  UNL1        0.0277
     13 C           5.9304    8.7199    5.5360 C.3     1  UNL1       -0.0445
     14 H           6.6870    9.5013    5.5527 H       1  UNL1        0.0277
     15 H           5.7754    8.3819    6.5595 H       1  UNL1        0.0277
     16 H           5.0020    9.1113    5.1181 H       1  UNL1        0.0277
     17 C           6.4922    3.1584    4.8497 C.3     1  UNL1       -0.0445
     18 H           5.6598    2.5898    5.2662 H       1  UNL1        0.0277
     19 H           7.3897    2.5440    4.8357 H       1  UNL1        0.0277
     20 H           6.2752    3.4575    3.8253 H       1  UNL1        0.0277
     21 C           6.7985    3.9549    7.5344 C.3     1  UNL1       -0.0445
     22 H           6.9949    4.7591    8.2430 H       1  UNL1        0.0277
     23 H           7.5802    3.1994    7.6138 H       1  UNL1        0.0277
     24 H           5.8307    3.4978    7.7449 H       1  UNL1        0.0277
@<TRIPOS>BOND
     1    11     9    1
     2    10     9    1
     3    12     9    1
     4     9     1    1
     5     5     3    1
     6    20    17    1
     7     4     3    1
     8     1     3    1
     9     1    13    1
    10     3     6    1
    11    19    17    1
    12    17    18    1
    13    17     2    1
    14    16    13    1
    15    13    14    1
    16    13    15    1
    17     6     2    1
    18     6     7    1
    19     6     8    1
    20     2    21    1
    21    21    23    1
    22    21    24    1
    23    21    22    1
