@<TRIPOS>MOLECULE
1,2
 24 23 0 0 0
SMALL
GASTEIGER

@<TRIPOS>ATOM
      1 P          -7.8477   -8.8202    1.1370 P.3     1  UNL1       -0.1119
      2 P          -8.8724   -7.8282   -1.5587 P.3     1  UNL1       -0.1119
      3 C          -9.9051   -9.0786   -0.6860 C.3     1  UNL1       -0.0288
      4 H         -10.6261   -8.5245   -0.0741 H       1  UNL1        0.0316
      5 H         -10.4506   -9.6852   -1.4157 H       1  UNL1        0.0316
      6 C          -8.9914   -9.9221    0.1892 C.3     1  UNL1       -0.0288
      7 H          -8.3649  -10.5679   -0.4359 H       1  UNL1        0.0316
      8 H          -9.5534  -10.5501    0.8870 H       1  UNL1        0.0316
      9 C          -6.5007  -10.0023    1.4857 C.3     1  UNL1       -0.0445
     10 H          -5.9028  -10.1437    0.5852 H       1  UNL1        0.0277
     11 H          -6.9382  -10.9520    1.7964 H       1  UNL1        0.0277
     12 H          -5.8611   -9.6200    2.2790 H       1  UNL1        0.0277
     13 C          -8.6669   -8.7243    2.7666 C.3     1  UNL1       -0.0445
     14 H          -9.6211   -8.2077    2.6617 H       1  UNL1        0.0277
     15 H          -8.0346   -8.1573    3.4509 H       1  UNL1        0.0277
     16 H          -8.8221   -9.7296    3.1593 H       1  UNL1        0.0277
     17 C          -8.1268   -8.8156   -2.9023 C.3     1  UNL1       -0.0445
     18 H          -7.5803   -8.1493   -3.5701 H       1  UNL1        0.0277
     19 H          -8.9073   -9.3364   -3.4579 H       1  UNL1        0.0277
     20 H          -7.4179   -9.5294   -2.4825 H       1  UNL1        0.0277
     21 C         -10.1584   -6.9051   -2.4638 C.3     1  UNL1       -0.0445
     22 H         -10.7064   -6.2715   -1.7660 H       1  UNL1        0.0277
     23 H         -10.8407   -7.6157   -2.9320 H       1  UNL1        0.0277
     24 H          -9.6956   -6.2897   -3.2356 H       1  UNL1        0.0277
@<TRIPOS>BOND
     1    18    17    1
     2    19    17    1
     3    24    21    1
     4    23    21    1
     5    17    20    1
     6    17     2    1
     7    21    22    1
     8    21     2    1
     9     2     3    1
    10     5     3    1
    11     3     4    1
    12     3     6    1
    13     7     6    1
    14     6     8    1
    15     6     1    1
    16    10     9    1
    17     1     9    1
    18     1    13    1
    19     9    11    1
    20     9    12    1
    21    14    13    1
    22    13    16    1
    23    13    15    1
