@<TRIPOS>MOLECULE
1,2
 24 23 0 0 0
SMALL
GASTEIGER

@<TRIPOS>ATOM
      1 P          -7.2013   -4.9765   -1.1691 P.3     1  UNL1       -0.1119
      2 P          -6.1762   -5.9691    1.5264 P.3     1  UNL1       -0.1119
      3 C          -5.1452   -4.7166    0.6548 C.3     1  UNL1       -0.0288
      4 H          -4.4231   -5.2690    0.0426 H       1  UNL1        0.0316
      5 H          -4.6010   -4.1097    1.3852 H       1  UNL1        0.0316
      6 C          -6.0600   -3.8737   -0.2197 C.3     1  UNL1       -0.0288
      7 H          -6.6883   -3.2300    0.4058 H       1  UNL1        0.0316
      8 H          -5.4991   -3.2437   -0.9166 H       1  UNL1        0.0316
      9 C          -8.5483   -3.7952   -1.5206 C.3     1  UNL1       -0.0445
     10 H          -9.1479   -3.6542   -0.6212 H       1  UNL1        0.0277
     11 H          -8.1107   -2.8452   -1.8302 H       1  UNL1        0.0277
     12 H          -9.1861   -4.1777   -2.3153 H       1  UNL1        0.0277
     13 C          -6.3797   -5.0721   -2.7975 C.3     1  UNL1       -0.0445
     14 H          -5.4248   -5.5872   -2.6912 H       1  UNL1        0.0277
     15 H          -7.0101   -5.6404   -3.4826 H       1  UNL1        0.0277
     16 H          -6.2254   -4.0668   -3.1905 H       1  UNL1        0.0277
     17 C          -6.9201   -4.9838    2.8724 C.3     1  UNL1       -0.0445
     18 H          -7.4672   -5.6508    3.5390 H       1  UNL1        0.0277
     19 H          -6.1387   -4.4651    3.4289 H       1  UNL1        0.0277
     20 H          -7.6284   -4.2682    2.4545 H       1  UNL1        0.0277
     21 C          -4.8887   -6.8924    2.4292 C.3     1  UNL1       -0.0445
     22 H          -4.3411   -7.5252    1.7305 H       1  UNL1        0.0277
     23 H          -4.2062   -6.1817    2.8971 H       1  UNL1        0.0277
     24 H          -5.3504   -7.5083    3.2012 H       1  UNL1        0.0277
@<TRIPOS>BOND
     1    15    13    1
     2    16    13    1
     3    13    14    1
     4    13     1    1
     5    12     9    1
     6    11     9    1
     7     9     1    1
     8     9    10    1
     9     1     6    1
    10     8     6    1
    11     6     7    1
    12     6     3    1
    13     4     3    1
    14     3     5    1
    15     3     2    1
    16     2    21    1
    17     2    17    1
    18    22    21    1
    19    21    23    1
    20    21    24    1
    21    20    17    1
    22    17    19    1
    23    17    18    1
