@<TRIPOS>MOLECULE
1,16
 52 55 0 0 0
SMALL
GASTEIGER

@<TRIPOS>ATOM
      1 P          -0.9671    1.6780    2.1232 P.3     1  UNL1       -0.0435
      2 C          -2.5515    1.2526    1.3130 C.ar    1  UNL1       -0.0189
      3 C          -2.6099    0.6442    0.0633 C.ar    1  UNL1       -0.0538
      4 C          -3.8345    0.2970   -0.4764 C.ar    1  UNL1       -0.0612
      5 C          -5.0045    0.5501    0.2238 C.ar    1  UNL1       -0.0617
      6 C          -4.9512    1.1521    1.4699 C.ar    1  UNL1       -0.0612
      7 C          -3.7260    1.5014    2.0095 C.ar    1  UNL1       -0.0538
      8 C           0.0187    2.2204    0.6970 C.ar    1  UNL1       -0.0189
      9 C           1.3562    1.8782    0.5271 C.ar    1  UNL1       -0.0538
     10 C           2.0911    2.4470   -0.4979 C.ar    1  UNL1       -0.0612
     11 C           1.5047    3.3604   -1.3578 C.ar    1  UNL1       -0.0617
     12 C           0.1728    3.7076   -1.1934 C.ar    1  UNL1       -0.0612
     13 C          -0.5627    3.1463   -0.1678 C.ar    1  UNL1       -0.0538
     14 C          -0.3611   -0.0364    2.4904 C.3     1  UNL1       -0.0199
     15 C          -1.1344   -0.5397    3.7042 C.3     1  UNL1       -0.0199
     16 P          -1.1658    0.8124    4.9958 P.3     1  UNL1       -0.0435
     17 C          -2.6868    0.4402    5.9409 C.ar    1  UNL1       -0.0189
     18 C          -3.8925    0.1297    5.3183 C.ar    1  UNL1       -0.0538
     19 C          -5.0515   -0.0087    6.0607 C.ar    1  UNL1       -0.0612
     20 C          -5.0291    0.1784    7.4329 C.ar    1  UNL1       -0.0617
     21 C          -3.8382    0.5062    8.0604 C.ar    1  UNL1       -0.0612
     22 C          -2.6781    0.6408    7.3207 C.ar    1  UNL1       -0.0538
     23 C           0.0712    0.1783    6.1868 C.ar    1  UNL1       -0.0189
     24 C           1.1142    1.0049    6.5809 C.ar    1  UNL1       -0.0538
     25 C           2.0606    0.5521    7.4837 C.ar    1  UNL1       -0.0612
     26 C           1.9629   -0.7273    8.0032 C.ar    1  UNL1       -0.0617
     27 C           0.9142   -1.5524    7.6247 C.ar    1  UNL1       -0.0612
     28 C          -0.0306   -1.1035    6.7222 C.ar    1  UNL1       -0.0538
     29 H          -1.6956    0.4534   -0.4826 H       1  UNL1        0.0624
     30 H          -3.8803   -0.1739   -1.4479 H       1  UNL1        0.0618
     31 H          -5.9581    0.2774   -0.2043 H       1  UNL1        0.0618
     32 H          -5.8627    1.3479    2.0173 H       1  UNL1        0.0618
     33 H          -3.6543    1.9678    2.9854 H       1  UNL1        0.0624
     34 H           1.8280    1.1781    1.1981 H       1  UNL1        0.0624
     35 H           3.1308    2.1810   -0.6178 H       1  UNL1        0.0618
     36 H           2.0837    3.8052   -2.1538 H       1  UNL1        0.0618
     37 H          -0.2881    4.4207   -1.8624 H       1  UNL1        0.0618
     38 H          -1.6042    3.4117   -0.0323 H       1  UNL1        0.0624
     39 H          -0.4936   -0.6905    1.6223 H       1  UNL1        0.0323
     40 H           0.7021    0.0440    2.7383 H       1  UNL1        0.0323
     41 H          -0.6785   -1.4440    4.1174 H       1  UNL1        0.0323
     42 H          -2.1647   -0.7654    3.4136 H       1  UNL1        0.0323
     43 H          -3.9330   -0.0050    4.2470 H       1  UNL1        0.0624
     44 H          -5.9785   -0.2592    5.5648 H       1  UNL1        0.0618
     45 H          -5.9361    0.0740    8.0099 H       1  UNL1        0.0618
     46 H          -3.8146    0.6603    9.1298 H       1  UNL1        0.0618
     47 H          -1.7487    0.8936    7.8129 H       1  UNL1        0.0624
     48 H           1.1796    1.9983    6.1549 H       1  UNL1        0.0624
     49 H           2.8752    1.1967    7.7798 H       1  UNL1        0.0618
     50 H           2.7007   -1.0844    8.7068 H       1  UNL1        0.0618
     51 H           0.8342   -2.5477    8.0380 H       1  UNL1        0.0618
     52 H          -0.8601   -1.7399    6.4414 H       1  UNL1        0.0624
@<TRIPOS>BOND
     1    36    11    1
     2    37    12    1
     3    30     4    1
     4    11    12   ar
     5    11    10   ar
     6    12    13   ar
     7    35    10    1
     8    10     9   ar
     9    29     3    1
    10     4     3   ar
    11     4     5   ar
    12    31     5    1
    13    13    38    1
    14    13     8   ar
    15     3     2   ar
    16     5     6   ar
    17     9     8   ar
    18     9    34    1
    19     8     1    1
    20     2     7   ar
    21     2     1    1
    22     6     7   ar
    23     6    32    1
    24    39    14    1
    25     7    33    1
    26     1    14    1
    27    14    40    1
    28    14    15    1
    29    42    15    1
    30    15    41    1
    31    15    16    1
    32    43    18    1
    33    16    17    1
    34    16    23    1
    35    18    17   ar
    36    18    19   ar
    37    44    19    1
    38    17    22   ar
    39    19    20   ar
    40    48    24    1
    41    23    24   ar
    42    23    28   ar
    43    52    28    1
    44    24    25   ar
    45    28    27   ar
    46    22    47    1
    47    22    21   ar
    48    20    45    1
    49    20    21   ar
    50    25    49    1
    51    25    26   ar
    52    27    26   ar
    53    27    51    1
    54    26    50    1
    55    21    46    1
