@<TRIPOS>MOLECULE
2,5
 102 109 0 0 0
SMALL
GASTEIGER

@<TRIPOS>ATOM
      1 SI         -0.2242   -2.1986   21.1832 Si      1  UNL1        0.0000
      2 P           4.1640    0.7499   19.3573 P.3     1  UNL1        0.0000
      3 C           1.7048    0.8064   18.0615 C.ar    1  UNL1        0.0000
      4 SI          4.3174    4.8937   14.1623 Si      1  UNL1        0.0000
      5 P           2.4680    3.5101   19.2680 P.3     1  UNL1        0.0000
      6 C           2.4351    0.2199   19.0821 C.ar    1  UNL1        0.0000
      7 C           1.8137   -0.6881   19.9524 C.ar    1  UNL1        0.0000
      8 H           2.4143   -1.1374   20.7243 H       1  UNL1        0.0000
      9 C           0.4875   -1.0279   19.8590 C.ar    1  UNL1        0.0000
     10 C          -1.6309   -0.7831   18.6078 C.ar    1  UNL1        0.0000
     11 H          -2.0985   -1.4712   19.2927 H       1  UNL1        0.0000
     12 C          -2.3535   -0.2528   17.5769 C.ar    1  UNL1        0.0000
     13 H          -3.3920   -0.5202   17.4438 H       1  UNL1        0.0000
     14 C          -1.7505    0.6450   16.6869 C.ar    1  UNL1        0.0000
     15 H          -2.3281    1.0656   15.8769 H       1  UNL1        0.0000
     16 C          -0.4404    0.9929   16.8500 C.ar    1  UNL1        0.0000
     17 H           0.0177    1.6939   16.1689 H       1  UNL1        0.0000
     18 C           0.3386    0.4465   17.8942 C.ar    1  UNL1        0.0000
     19 C          -0.2727   -0.4607   18.8021 C.ar    1  UNL1        0.0000
     20 C           2.3319    1.7582   17.1166 C.ar    1  UNL1        0.0000
     21 C           2.6765    3.0403   17.5121 C.ar    1  UNL1        0.0000
     22 C           3.2447    3.9273   16.5856 C.ar    1  UNL1        0.0000
     23 H           3.4842    4.9216   16.9218 H       1  UNL1        0.0000
     24 C           3.4940    3.5882   15.2793 C.ar    1  UNL1        0.0000
     25 C           3.3232    1.8616   13.5172 C.ar    1  UNL1        0.0000
     26 H           3.7705    2.5495   12.8187 H       1  UNL1        0.0000
     27 C           2.9531    0.6142   13.1009 C.ar    1  UNL1        0.0000
     28 H           3.1057    0.3139   12.0741 H       1  UNL1        0.0000
     29 C           2.3754   -0.2849   14.0062 C.ar    1  UNL1        0.0000
     30 H           2.0899   -1.2718   13.6727 H       1  UNL1        0.0000
     31 C           2.1836    0.0837   15.3067 C.ar    1  UNL1        0.0000
     32 H           1.7482   -0.6150   16.0049 H       1  UNL1        0.0000
     33 C           2.5386    1.3728   15.7630 C.ar    1  UNL1        0.0000
     34 C           3.1302    2.2852   14.8476 C.ar    1  UNL1        0.0000
     35 C           1.1520   -2.6498   22.4246 C.3     1  UNL1        0.0000
     36 H           1.9775   -3.1719   21.9495 H       1  UNL1        0.0000
     37 H           0.7646   -3.2980   23.2051 H       1  UNL1        0.0000
     38 H           1.5505   -1.7632   22.9075 H       1  UNL1        0.0000
     39 C          -0.8433   -3.8306   20.4004 C.3     1  UNL1        0.0000
     40 H          -0.0714   -4.2854   19.7866 H       1  UNL1        0.0000
     41 H          -1.7160   -3.6905   19.7712 H       1  UNL1        0.0000
     42 H          -1.1104   -4.5457   21.1727 H       1  UNL1        0.0000
     43 C          -1.6092   -1.3373   22.1785 C.3     1  UNL1        0.0000
     44 H          -1.2053   -0.4957   22.7337 H       1  UNL1        0.0000
     45 H          -2.0498   -2.0218   22.8977 H       1  UNL1        0.0000
     46 H          -2.4095   -0.9619   21.5490 H       1  UNL1        0.0000
     47 C           6.0120    4.2874   13.5202 C.3     1  UNL1        0.0000
     48 H           5.9561    3.3182   13.0353 H       1  UNL1        0.0000
     49 H           6.7192    4.2038   14.3401 H       1  UNL1        0.0000
     50 H           6.4258    4.9907   12.8031 H       1  UNL1        0.0000
     51 C           4.6396    6.4753   15.1792 C.3     1  UNL1        0.0000
     52 H           3.7205    6.9103   15.5609 H       1  UNL1        0.0000
     53 H           5.1257    7.2296   14.5675 H       1  UNL1        0.0000
     54 H           5.2902    6.2751   16.0247 H       1  UNL1        0.0000
     55 C           3.1624    5.3749   12.7150 C.3     1  UNL1        0.0000
     56 H           3.0545    4.5818   11.9825 H       1  UNL1        0.0000
     57 H           3.5457    6.2477   12.1948 H       1  UNL1        0.0000
     58 H           2.1676    5.6199   13.0754 H       1  UNL1        0.0000
     59 C           4.9869   -0.6004   20.2883 C.ar    1  UNL1        0.0000
     60 C           4.6099   -0.8399   21.6117 C.ar    1  UNL1        0.0000
     61 H           3.8117   -0.2591   22.0546 H       1  UNL1        0.0000
     62 C           5.2620   -1.7942   22.3709 C.ar    1  UNL1        0.0000
     63 H           4.9445   -1.9777   23.3875 H       1  UNL1        0.0000
     64 C           6.3223   -2.5063   21.8347 C.ar    1  UNL1        0.0000
     65 H           6.8330   -3.2514   22.4268 H       1  UNL1        0.0000
     66 C           6.7353   -2.2422   20.5401 C.ar    1  UNL1        0.0000
     67 H           7.5770   -2.7751   20.1217 H       1  UNL1        0.0000
     68 C           6.0789   -1.2954   19.7727 C.ar    1  UNL1        0.0000
     69 H           6.4239   -1.0979   18.7686 H       1  UNL1        0.0000
     70 C           4.8178    0.4203   17.6806 C.ar    1  UNL1        0.0000
     71 C           5.5881    1.3329   16.9749 C.ar    1  UNL1        0.0000
     72 H           5.8139    2.2946   17.4077 H       1  UNL1        0.0000
     73 C           6.0581    1.0137   15.7123 C.ar    1  UNL1        0.0000
     74 H           6.6508    1.7321   15.1667 H       1  UNL1        0.0000
     75 C           5.7724   -0.2179   15.1522 C.ar    1  UNL1        0.0000
     76 H           6.1396   -0.4651   14.1668 H       1  UNL1        0.0000
     77 C           5.0113   -1.1378   15.8571 C.ar    1  UNL1        0.0000
     78 H           4.7891   -2.1023   15.4236 H       1  UNL1        0.0000
     79 C           4.5326   -0.8209   17.1120 C.ar    1  UNL1        0.0000
     80 H           3.9353   -1.5347   17.6655 H       1  UNL1        0.0000
     81 C           0.6779    3.1558   19.4155 C.ar    1  UNL1        0.0000
     82 C          -0.1581    3.6630   18.4207 C.ar    1  UNL1        0.0000
     83 H           0.2707    4.2276   17.6023 H       1  UNL1        0.0000
     84 C          -1.5204    3.4526   18.4819 C.ar    1  UNL1        0.0000
     85 H          -2.1622    3.8513   17.7093 H       1  UNL1        0.0000
     86 C          -2.0640    2.7272   19.5312 C.ar    1  UNL1        0.0000
     87 H          -3.1301    2.5577   19.5737 H       1  UNL1        0.0000
     88 C          -1.2392    2.2216   20.5189 C.ar    1  UNL1        0.0000
     89 H          -1.6588    1.6561   21.3371 H       1  UNL1        0.0000
     90 C           0.1276    2.4377   20.4669 C.ar    1  UNL1        0.0000
     91 H           0.7656    2.0398   21.2399 H       1  UNL1        0.0000
     92 C           2.4233    5.3440   19.3126 C.ar    1  UNL1        0.0000
     93 C           3.5854    6.0576   19.0118 C.ar    1  UNL1        0.0000
     94 H           4.4810    5.5243   18.7225 H       1  UNL1        0.0000
     95 C           3.6124    7.4369   19.1086 C.ar    1  UNL1        0.0000
     96 H           4.5155    7.9733   18.8548 H       1  UNL1        0.0000
     97 C           2.4903    8.1277   19.5358 C.ar    1  UNL1        0.0000
     98 H           2.5100    9.2051   19.6115 H       1  UNL1        0.0000
     99 C           1.3488    7.4260   19.8834 C.ar    1  UNL1        0.0000
    100 H           0.4769    7.9545   20.2411 H       1  UNL1        0.0000
    101 C           1.3135    6.0460   19.7782 C.ar    1  UNL1        0.0000
    102 H           0.4160    5.5173   20.0635 H       1  UNL1        0.0000
@<TRIPOS>BOND
     1    56    55    1
     2    28    27    1
     3    57    55    1
     4    55    58    1
     5    55     4    1
     6    50    47    1
     7    26    25    1
     8    48    47    1
     9    27    25   ar
    10    27    29   ar
    11    25    34   ar
    12    47     4    1
    13    47    49    1
    14    30    29    1
    15    29    31   ar
    16     4    51    1
    17     4    24    1
    18    76    75    1
    19    53    51    1
    20    34    24   ar
    21    34    33   ar
    22    75    73   ar
    23    75    77   ar
    24    74    73    1
    25    51    52    1
    26    51    54    1
    27    24    22   ar
    28    31    33   ar
    29    31    32    1
    30    78    77    1
    31    73    71   ar
    32    33    20   ar
    33    77    79   ar
    34    15    14    1
    35    17    16    1
    36    22    23    1
    37    22    21   ar
    38    14    16   ar
    39    14    12   ar
    40    16    18   ar
    41    71    72    1
    42    71    70   ar
    43    79    80    1
    44    79    70   ar
    45    20    21   ar
    46    20     3    1
    47    13    12    1
    48    21     5    1
    49    12    10   ar
    50    83    82    1
    51    70     2    1
    52    85    84    1
    53    18     3   ar
    54    18    19   ar
    55     3     6   ar
    56    82    84   ar
    57    82    81   ar
    58    84    86   ar
    59    10    19   ar
    60    10    11    1
    61    94    93    1
    62    69    68    1
    63    19     9   ar
    64    96    95    1
    65    93    95   ar
    66    93    92   ar
    67     6     2    1
    68     6     7   ar
    69    95    97   ar
    70     5    92    1
    71     5    81    1
    72    92   101   ar
    73     2    59    1
    74    81    90   ar
    75    86    87    1
    76    86    88   ar
    77    97    98    1
    78    97    99   ar
    79    41    39    1
    80    68    59   ar
    81    68    66   ar
    82   101    99   ar
    83   101   102    1
    84    40    39    1
    85     9     7   ar
    86     9     1    1
    87    99   100    1
    88     7     8    1
    89    67    66    1
    90    59    60   ar
    91    39    42    1
    92    39     1    1
    93    90    88   ar
    94    90    91    1
    95    88    89    1
    96    66    64   ar
    97     1    43    1
    98     1    35    1
    99    46    43    1
   100    60    61    1
   101    60    62   ar
   102    64    62   ar
   103    64    65    1
   104    36    35    1
   105    43    44    1
   106    43    45    1
   107    62    63    1
   108    35    38    1
   109    35    37    1
