@<TRIPOS>MOLECULE
1,2
 24 23 0 0 0
SMALL
GASTEIGER

@<TRIPOS>ATOM
      1 P           5.2169    0.1517    7.0851 P.3     1  UNL1       -0.1119
      2 P           4.2091    2.2463    5.3684 P.3     1  UNL1       -0.1119
      3 C           3.5110    0.5558    5.0027 C.3     1  UNL1       -0.0288
      4 H           2.5831    0.4361    5.5677 H       1  UNL1        0.0316
      5 H           3.2827    0.4424    3.9386 H       1  UNL1        0.0316
      6 C           3.6702    0.1160    8.0759 C.3     1  UNL1       -0.0445
      7 H           3.0627   -0.7438    7.7885 H       1  UNL1        0.0277
      8 H           3.1181    1.0438    7.9281 H       1  UNL1        0.0277
      9 H           3.9394    0.0361    9.1269 H       1  UNL1        0.0277
     10 C           2.6448    3.1682    5.6598 C.3     1  UNL1       -0.0445
     11 H           1.9069    2.8516    4.9211 H       1  UNL1        0.0277
     12 H           2.8349    4.2349    5.5624 H       1  UNL1        0.0277
     13 H           2.2756    2.9650    6.6646 H       1  UNL1        0.0277
     14 C           4.5400   -0.4559    5.4747 C.3     1  UNL1       -0.0288
     15 H           5.3766   -0.5120    4.7710 H       1  UNL1        0.0316
     16 H           4.1160   -1.4596    5.5914 H       1  UNL1        0.0316
     17 C           4.5649    2.8017    3.6542 C.3     1  UNL1       -0.0445
     18 H           3.6527    2.7569    3.0566 H       1  UNL1        0.0277
     19 H           5.3212    2.1511    3.2152 H       1  UNL1        0.0277
     20 H           4.9386    3.8245    3.6783 H       1  UNL1        0.0277
     21 C           5.9753   -1.4255    7.6569 C.3     1  UNL1       -0.0445
     22 H           5.1788   -2.0963    7.9792 H       1  UNL1        0.0277
     23 H           6.6453   -1.2400    8.4930 H       1  UNL1        0.0277
     24 H           6.5268   -1.8868    6.8380 H       1  UNL1        0.0277
@<TRIPOS>BOND
     1    18    17    1
     2    19    17    1
     3    17    20    1
     4    17     2    1
     5     5     3    1
     6    15    14    1
     7    11    10    1
     8     3     2    1
     9     3    14    1
    10     3     4    1
    11     2    10    1
    12    14    16    1
    13    14     1    1
    14    12    10    1
    15    10    13    1
    16    24    21    1
    17     1    21    1
    18     1     6    1
    19    21    22    1
    20    21    23    1
    21     7     6    1
    22     8     6    1
    23     6     9    1
