@<TRIPOS>MOLECULE
1,4
 15 15 0 0 0
SMALL
GASTEIGER

@<TRIPOS>ATOM
      1 P           5.5147    0.9216    5.0167 P.3     1  UNL1       -0.1046
      2 H           6.1665    1.5916    6.0966 H       1  UNL1        0.0591
      3 H           6.3956   -0.1615    5.1723 H       1  UNL1        0.0591
      4 P           4.1252    3.0868    3.0743 P.3     1  UNL1       -0.0623
      5 H           3.9097    3.4583    1.7368 H       1  UNL1        0.0671
      6 C           6.4929    1.7833    3.7439 C.ar    1  UNL1       -0.0219
      7 C           7.8668    1.5894    3.6738 C.ar    1  UNL1       -0.0540
      8 H           8.3432    0.9298    4.3886 H       1  UNL1        0.0624
      9 C           8.6233    2.2138    2.6984 C.ar    1  UNL1       -0.0611
     10 H           9.6901    2.0532    2.6493 H       1  UNL1        0.0618
     11 C           7.9937    3.0420    1.7774 C.ar    1  UNL1       -0.0611
     12 H           8.5753    3.5269    1.0058 H       1  UNL1        0.0618
     13 C           6.6362    3.2619    1.8525 C.ar    1  UNL1       -0.0535
     14 H           6.1569    3.9305    1.1493 H       1  UNL1        0.0624
     15 C           5.8498    2.6493    2.8400 C.ar    1  UNL1       -0.0150
@<TRIPOS>BOND
     1    12    11    1
     2    14    13    1
     3     5     4    1
     4    11    13   ar
     5    11     9   ar
     6    13    15   ar
     7    10     9    1
     8     9     7   ar
     9    15     4    1
    10    15     6   ar
    11     7     6   ar
    12     7     8    1
    13     6     1    1
    14     1     3    1
    15     1     2    1
