@<TRIPOS>MOLECULE
1,2
 49 48 0 0 0
SMALL
GASTEIGER

@<TRIPOS>ATOM
      1 P           4.4436    4.0720    3.1780 P.3     1  UNL1        0.0000
      2 P           5.2915    3.2973    4.9701 P.3     1  UNL1        0.0000
      3 SI          1.6449    3.8957    4.5240 Si      1  UNL1        0.0000
      4 SI          2.5179    6.4125    2.6409 Si      1  UNL1        0.0000
      5 N           5.8641    1.0572    3.4051 N.3     1  UNL1        0.0000
      6 N           7.3653    1.5472    5.0961 N.3     1  UNL1        0.0000
      7 C           3.0389    5.0588    3.9074 C.3     1  UNL1        0.0000
      8 H           3.4350    5.5705    4.7880 H       1  UNL1        0.0000
      9 C           3.9572    6.9081    1.4923 C.3     1  UNL1        0.0000
     10 H           4.2339    6.0770    0.8493 H       1  UNL1        0.0000
     11 H           4.8335    7.1943    2.0659 H       1  UNL1        0.0000
     12 H           3.6866    7.7448    0.8549 H       1  UNL1        0.0000
     13 C           1.8995    7.9424    3.5919 C.3     1  UNL1        0.0000
     14 H           1.5691    8.7172    2.9076 H       1  UNL1        0.0000
     15 H           2.6927    8.3573    4.2047 H       1  UNL1        0.0000
     16 H           1.0678    7.7013    4.2448 H       1  UNL1        0.0000
     17 C           1.1564    5.7588    1.4686 C.3     1  UNL1        0.0000
     18 H           0.9371    6.4968    0.7040 H       1  UNL1        0.0000
     19 H           0.2325    5.5491    1.9938 H       1  UNL1        0.0000
     20 H           1.4647    4.8479    0.9672 H       1  UNL1        0.0000
     21 C           0.1283    4.9134    5.0739 C.3     1  UNL1        0.0000
     22 H          -0.6550    4.2575    5.4390 H       1  UNL1        0.0000
     23 H          -0.2855    5.5002    4.2625 H       1  UNL1        0.0000
     24 H           0.3848    5.5957    5.8773 H       1  UNL1        0.0000
     25 C           1.1414    2.6591    3.1511 C.3     1  UNL1        0.0000
     26 H           1.9284    2.5638    2.4097 H       1  UNL1        0.0000
     27 H           0.2446    2.9862    2.6375 H       1  UNL1        0.0000
     28 H           0.9428    1.6714    3.5555 H       1  UNL1        0.0000
     29 C           2.1867    2.9105    6.0720 C.3     1  UNL1        0.0000
     30 H           1.3252    2.5217    6.6070 H       1  UNL1        0.0000
     31 H           2.7422    3.5469    6.7543 H       1  UNL1        0.0000
     32 H           2.8284    2.0696    5.8255 H       1  UNL1        0.0000
     33 C           6.2539    1.8974    4.4010 C.3     1  UNL1        0.0000
     34 C           4.4829    0.8830    3.0387 C.3     1  UNL1        0.0000
     35 H           3.8394    1.3010    3.8093 H       1  UNL1        0.0000
     36 H           4.2816   -0.1881    2.9415 H       1  UNL1        0.0000
     37 H           4.2505    1.3686    2.0864 H       1  UNL1        0.0000
     38 C           6.7886    0.4471    2.4770 C.3     1  UNL1        0.0000
     39 H           7.8080    0.7578    2.6831 H       1  UNL1        0.0000
     40 H           6.5325    0.7633    1.4606 H       1  UNL1        0.0000
     41 H           6.7303   -0.6452    2.5098 H       1  UNL1        0.0000
     42 C           7.7941    0.1729    5.2439 C.3     1  UNL1        0.0000
     43 H           7.0530   -0.5067    4.8325 H       1  UNL1        0.0000
     44 H           7.9021   -0.0481    6.3079 H       1  UNL1        0.0000
     45 H           8.7585   -0.0052    4.7594 H       1  UNL1        0.0000
     46 C           7.9303    2.4466    6.0719 C.3     1  UNL1        0.0000
     47 H           7.9091    3.4726    5.6880 H       1  UNL1        0.0000
     48 H           8.9626    2.1553    6.2642 H       1  UNL1        0.0000
     49 H           7.3694    2.4258    7.0107 H       1  UNL1        0.0000
@<TRIPOS>BOND
     1    18    17    1
     2    10     9    1
     3    12     9    1
     4    20    17    1
     5    40    38    1
     6    17    19    1
     7    17     4    1
     8     9    11    1
     9     9     4    1
    10    37    34    1
    11    26    25    1
    12    38    41    1
    13    38    39    1
    14    38     5    1
    15    27    25    1
    16     4    13    1
    17     4     7    1
    18    14    13    1
    19    36    34    1
    20    34     5    1
    21    34    35    1
    22    25    28    1
    23    25     3    1
    24     1     7    1
    25     1     2    1
    26     5    33    1
    27    13    15    1
    28    13    16    1
    29     7     3    1
    30     7     8    1
    31    23    21    1
    32    33     2    1
    33    33     6    1
    34     3    21    1
    35     3    29    1
    36    45    42    1
    37    43    42    1
    38    21    22    1
    39    21    24    1
    40     6    42    1
    41     6    46    1
    42    42    44    1
    43    47    46    1
    44    32    29    1
    45    46    48    1
    46    46    49    1
    47    29    30    1
    48    29    31    1
