@<TRIPOS>MOLECULE
1,2
 76 79 0 0 0
SMALL
GASTEIGER

@<TRIPOS>ATOM
      1 P          -1.2194    8.1883   12.3603 P.3     1  UNL1       -0.0992
      2 P           0.7136    7.9651   14.9564 P.3     1  UNL1       -0.0992
      3 C          -1.0582    7.4275   15.0098 C.3     1  UNL1       -0.0279
      4 H          -1.2250    6.6880   15.7979 H       1  UNL1        0.0317
      5 H          -1.6536    8.3159   15.2454 H       1  UNL1        0.0317
      6 C          -1.4382    6.8652   13.6447 C.3     1  UNL1       -0.0279
      7 H          -2.4551    6.4648   13.6423 H       1  UNL1        0.0317
      8 H          -0.7508    6.0545   13.3888 H       1  UNL1        0.0317
      9 C           1.6294    6.3323   14.8652 C.3     1  UNL1       -0.0202
     10 H           1.5976    6.1052   13.7874 H       1  UNL1        0.0349
     11 C          -2.8146    9.1476   12.5011 C.3     1  UNL1       -0.0202
     12 H          -2.7154    9.7074   13.4392 H       1  UNL1        0.0349
     13 C           0.8840    8.7021   16.6556 C.3     1  UNL1       -0.0202
     14 H           0.0570    9.4276   16.6639 H       1  UNL1        0.0349
     15 C          -2.8933   10.1588   11.3555 C.3     1  UNL1       -0.0463
     16 H          -3.0567    9.6367   10.4092 H       1  UNL1        0.0271
     17 H          -1.9557   10.7173   11.2850 H       1  UNL1        0.0271
     18 C           1.0761    5.1263   15.6240 C.3     1  UNL1       -0.0463
     19 H           0.0373    4.9323   15.3520 H       1  UNL1        0.0271
     20 H           1.1183    5.2999   16.6990 H       1  UNL1        0.0271
     21 C          -4.1196    8.3541   12.5760 C.3     1  UNL1       -0.0463
     22 H          -4.1010    7.6421   13.4026 H       1  UNL1        0.0271
     23 H          -4.2906    7.7985   11.6509 H       1  UNL1        0.0271
     24 C           3.0941    6.5551   15.2386 C.3     1  UNL1       -0.0463
     25 H           3.1756    6.7332   16.3119 H       1  UNL1        0.0271
     26 H           3.4682    7.4405   14.7153 H       1  UNL1        0.0271
     27 C          -5.3638   10.3563   11.6869 C.3     1  UNL1       -0.0530
     28 H          -6.1874   11.0454   11.8815 H       1  UNL1        0.0265
     29 H          -5.5665    9.8542   10.7371 H       1  UNL1        0.0265
     30 C           0.7019    7.7810   17.8607 C.3     1  UNL1       -0.0463
     31 H           1.5537    7.1040   17.9510 H       1  UNL1        0.0271
     32 H          -0.2071    7.1842   17.7645 H       1  UNL1        0.0271
     33 C           2.1818    9.4970   16.8065 C.3     1  UNL1       -0.0463
     34 H           3.0382    8.8255   16.8847 H       1  UNL1        0.0271
     35 H           2.3333   10.1360   15.9330 H       1  UNL1        0.0271
     36 C          -4.0510   11.1251   11.5855 C.3     1  UNL1       -0.0525
     37 H          -3.8765   11.6813   12.5075 H       1  UNL1        0.0265
     38 H          -4.0982   11.8447   10.7663 H       1  UNL1        0.0265
     39 C          -5.2833    9.3201   12.8027 C.3     1  UNL1       -0.0525
     40 H          -6.2184    8.7579   12.8596 H       1  UNL1        0.0265
     41 H          -5.1395    9.8304   13.7574 H       1  UNL1        0.0265
     42 C           3.3788    4.1039   15.6320 C.3     1  UNL1       -0.0530
     43 H           3.4792    4.2580   16.7088 H       1  UNL1        0.0265
     44 H           3.9561    3.2160   15.3675 H       1  UNL1        0.0265
     45 C           1.9088    3.8880   15.2861 C.3     1  UNL1       -0.0525
     46 H           1.5210    3.0270   15.8346 H       1  UNL1        0.0265
     47 H           1.8174    3.6712   14.2187 H       1  UNL1        0.0265
     48 C           3.9244    5.3221   14.8927 C.3     1  UNL1       -0.0525
     49 H           3.8834    5.1373   13.8166 H       1  UNL1        0.0265
     50 H           4.9689    5.4878   15.1642 H       1  UNL1        0.0265
     51 C           0.6169    8.6335   19.1268 C.3     1  UNL1       -0.0525
     52 H          -0.2519    9.2914   19.0578 H       1  UNL1        0.0265
     53 H           0.4809    7.9880   19.9977 H       1  UNL1        0.0265
     54 C           2.1070   10.3537   18.0675 C.3     1  UNL1       -0.0525
     55 H           3.0312   10.9226   18.1823 H       1  UNL1        0.0265
     56 H           1.2878   11.0675   17.9671 H       1  UNL1        0.0265
     57 C           1.8783    9.4758   19.2946 C.3     1  UNL1       -0.0530
     58 H           2.7386    8.8155   19.4331 H       1  UNL1        0.0265
     59 H           1.7905   10.0982   20.1869 H       1  UNL1        0.0265
     60 C          -0.6760    8.0125    9.6656 C.3     1  UNL1       -0.0463
     61 H          -0.9738    9.0623    9.6339 H       1  UNL1        0.0271
     62 H           0.3835    7.9827    9.9344 H       1  UNL1        0.0271
     63 C          -1.4628    7.2696   10.7463 C.3     1  UNL1       -0.0202
     64 H          -2.5313    7.3072   10.5028 H       1  UNL1        0.0349
     65 C          -0.4728    5.9097    8.3163 C.3     1  UNL1       -0.0530
     66 H           0.6004    5.8366    8.5045 H       1  UNL1        0.0265
     67 H          -0.6696    5.4506    7.3456 H       1  UNL1        0.0265
     68 C          -1.2343    5.1616    9.4049 C.3     1  UNL1       -0.0525
     69 H          -0.9079    4.1199    9.4389 H       1  UNL1        0.0265
     70 H          -2.3005    5.1676    9.1646 H       1  UNL1        0.0265
     71 C          -0.8867    7.3769    8.2947 C.3     1  UNL1       -0.0525
     72 H          -1.9411    7.4509    8.0168 H       1  UNL1        0.0265
     73 H          -0.3070    7.9183    7.5450 H       1  UNL1        0.0265
     74 C          -1.0291    5.8052   10.7768 C.3     1  UNL1       -0.0463
     75 H          -1.6165    5.2471   11.5082 H       1  UNL1        0.0271
     76 H           0.0249    5.7456   11.0588 H       1  UNL1        0.0271
@<TRIPOS>BOND
     1    67    65    1
     2    73    71    1
     3    72    71    1
     4    71    65    1
     5    71    60    1
     6    65    66    1
     7    65    68    1
     8    70    68    1
     9    68    69    1
    10    68    74    1
    11    61    60    1
    12    60    62    1
    13    60    63    1
    14    16    15    1
    15    64    63    1
    16    29    27    1
    17    63    74    1
    18    63     1    1
    19    38    36    1
    20    74    76    1
    21    74    75    1
    22    17    15    1
    23    15    36    1
    24    15    11    1
    25    36    27    1
    26    36    37    1
    27    23    21    1
    28    27    28    1
    29    27    39    1
    30     1    11    1
    31     1     6    1
    32    11    21    1
    33    11    12    1
    34    21    39    1
    35    21    22    1
    36    39    40    1
    37    39    41    1
    38     8     6    1
    39     7     6    1
    40     6     3    1
    41    10     9    1
    42    49    48    1
    43    47    45    1
    44    26    24    1
    45     9     2    1
    46     9    24    1
    47     9    18    1
    48    48    50    1
    49    48    24    1
    50    48    42    1
    51     2     3    1
    52     2    13    1
    53     3     5    1
    54     3     4    1
    55    24    25    1
    56    45    18    1
    57    45    42    1
    58    45    46    1
    59    19    18    1
    60    44    42    1
    61    18    20    1
    62    42    43    1
    63    35    33    1
    64    13    14    1
    65    13    33    1
    66    13    30    1
    67    33    34    1
    68    33    54    1
    69    32    30    1
    70    30    31    1
    71    30    51    1
    72    56    54    1
    73    54    55    1
    74    54    57    1
    75    52    51    1
    76    51    57    1
    77    51    53    1
    78    57    58    1
    79    57    59    1
