@<TRIPOS>MOLECULE
1,2
 52 55 0 0 0
SMALL
GASTEIGER

@<TRIPOS>ATOM
      1 P           7.6935   -0.3717    7.6554 P.3     1  UNL1       -0.0435
      2 P           7.2031    1.6328    5.4435 P.3     1  UNL1       -0.0435
      3 C           6.6705    3.2668    4.8417 C.ar    1  UNL1       -0.0189
      4 C           8.7384   -1.8287    7.2726 C.ar    1  UNL1       -0.0189
      5 C           7.5999   -0.4258    9.4736 C.ar    1  UNL1       -0.0189
      6 C           9.4983   -2.5276    8.2035 C.ar    1  UNL1       -0.0538
      7 H           9.4730   -2.2556    9.2486 H       1  UNL1        0.0624
      8 C           5.2499    5.1797    5.1804 C.ar    1  UNL1       -0.0612
      9 H           4.5008    5.6937    5.7649 H       1  UNL1        0.0618
     10 C           9.6421   -3.2108    5.5157 C.ar    1  UNL1       -0.0612
     11 H           9.6980   -3.4655    4.4674 H       1  UNL1        0.0618
     12 C           7.7517    0.7254   10.2422 C.ar    1  UNL1       -0.0538
     13 H           8.0104    1.6639    9.7748 H       1  UNL1        0.0624
     14 C           5.7144    3.9452    5.5931 C.ar    1  UNL1       -0.0538
     15 H           5.3312    3.4906    6.4982 H       1  UNL1        0.0624
     16 C           8.8396   -2.1635    5.9248 C.ar    1  UNL1       -0.0538
     17 H           8.2731   -1.5977    5.1961 H       1  UNL1        0.0624
     18 C          10.3671   -3.9286    6.4528 C.ar    1  UNL1       -0.0617
     19 H          10.9900   -4.7542    6.1410 H       1  UNL1        0.0618
     20 C          10.3017   -3.5764    7.7906 C.ar    1  UNL1       -0.0612
     21 H          10.8840   -4.1197    8.5211 H       1  UNL1        0.0618
     22 C           7.1960   -0.5047   12.2276 C.ar    1  UNL1       -0.0617
     23 H           7.0357   -0.5335   13.2952 H       1  UNL1        0.0618
     24 C           7.2362   -1.6160   10.1024 C.ar    1  UNL1       -0.0538
     25 H           7.1033   -2.5118    9.5129 H       1  UNL1        0.0624
     26 C           5.7385    5.7459    4.0134 C.ar    1  UNL1       -0.0617
     27 H           5.3711    6.7066    3.6836 H       1  UNL1        0.0618
     28 C           7.1650    3.8418    3.6762 C.ar    1  UNL1       -0.0538
     29 H           7.9035    3.3189    3.0850 H       1  UNL1        0.0624
     30 C           7.5489    0.6837   11.6103 C.ar    1  UNL1       -0.0612
     31 H           7.6574    1.5866   12.1931 H       1  UNL1        0.0618
     32 C           6.6969    5.0785    3.2679 C.ar    1  UNL1       -0.0612
     33 H           7.0795    5.5218    2.3598 H       1  UNL1        0.0618
     34 C           7.0446   -1.6556   11.4711 C.ar    1  UNL1       -0.0612
     35 H           6.7667   -2.5865   11.9439 H       1  UNL1        0.0618
     36 C           8.4607    2.1525    6.6923 C.3     1  UNL1       -0.0199
     37 H           9.2368    2.7710    6.2287 H       1  UNL1        0.0323
     38 H           7.9197    2.7697    7.4190 H       1  UNL1        0.0323
     39 C           9.0257    0.9001    7.3458 C.3     1  UNL1       -0.0199
     40 H           9.5545    1.1182    8.2790 H       1  UNL1        0.0323
     41 H           9.7328    0.4125    6.6657 H       1  UNL1        0.0323
     42 C           8.2078    1.0203    4.0464 C.ar    1  UNL1       -0.0189
     43 C           7.4833    0.4811    2.9842 C.ar    1  UNL1       -0.0538
     44 H           6.4053    0.5145    3.0191 H       1  UNL1        0.0624
     45 C           9.5979    0.9959    3.9927 C.ar    1  UNL1       -0.0538
     46 H          10.1956    1.4310    4.7800 H       1  UNL1        0.0624
     47 C           8.1266   -0.0893    1.9034 C.ar    1  UNL1       -0.0612
     48 H           7.5470   -0.5110    1.0958 H       1  UNL1        0.0618
     49 C           9.5108   -0.1312    1.8703 C.ar    1  UNL1       -0.0617
     50 H          10.0205   -0.5892    1.0355 H       1  UNL1        0.0618
     51 C          10.2403    0.4213    2.9094 C.ar    1  UNL1       -0.0612
     52 H          11.3206    0.4038    2.8802 H       1  UNL1        0.0618
@<TRIPOS>BOND
     1    50    49    1
     2    48    47    1
     3    49    47   ar
     4    49    51   ar
     5    47    43   ar
     6    33    32    1
     7    52    51    1
     8    51    45   ar
     9    43    44    1
    10    43    42   ar
    11    29    28    1
    12    32    28   ar
    13    32    26   ar
    14    28     3   ar
    15    27    26    1
    16    45    42   ar
    17    45    46    1
    18    26     8   ar
    19    42     2    1
    20    11    10    1
    21     3     2    1
    22     3    14   ar
    23     8    14   ar
    24     8     9    1
    25    17    16    1
    26     2    36    1
    27    10    16   ar
    28    10    18   ar
    29    14    15    1
    30    16     4   ar
    31    19    18    1
    32    37    36    1
    33    18    20   ar
    34    41    39    1
    35    36    39    1
    36    36    38    1
    37     4     1    1
    38     4     6   ar
    39    39     1    1
    40    39    40    1
    41     1     5    1
    42    20     6   ar
    43    20    21    1
    44     6     7    1
    45     5    24   ar
    46     5    12   ar
    47    25    24    1
    48    13    12    1
    49    24    34   ar
    50    12    30   ar
    51    34    35    1
    52    34    22   ar
    53    30    31    1
    54    30    22   ar
    55    22    23    1
