@<TRIPOS>MOLECULE
1,2
 52 55 0 0 0
SMALL
GASTEIGER

@<TRIPOS>ATOM
      1 P           3.8556    0.7753    5.3626 P.3     1  UNL1       -0.0435
      2 P           4.3456   -1.2290    7.5750 P.3     1  UNL1       -0.0435
      3 C           4.8781   -2.8631    8.1765 C.ar    1  UNL1       -0.0189
      4 C           2.8116    2.2332    5.7445 C.ar    1  UNL1       -0.0189
      5 C           3.9496    0.8283    3.5443 C.ar    1  UNL1       -0.0189
      6 C           2.0531    2.9331    4.8133 C.ar    1  UNL1       -0.0538
      7 H           2.0786    2.6611    3.7682 H       1  UNL1        0.0624
      8 C           6.2992   -4.7757    7.8382 C.ar    1  UNL1       -0.0612
      9 H           7.0488   -5.2895    7.2542 H       1  UNL1        0.0618
     10 C           1.9087    3.6164    7.5010 C.ar    1  UNL1       -0.0612
     11 H           1.8526    3.8711    8.5493 H       1  UNL1        0.0618
     12 C           3.7971   -0.3232    2.7764 C.ar    1  UNL1       -0.0538
     13 H           3.5374   -1.2612    3.2442 H       1  UNL1        0.0624
     14 C           5.8349   -3.5411    7.4257 C.ar    1  UNL1       -0.0538
     15 H           6.2188   -3.0861    6.5211 H       1  UNL1        0.0624
     16 C           2.7101    2.5681    7.0923 C.ar    1  UNL1       -0.0538
     17 H           3.2755    2.0016    7.8213 H       1  UNL1        0.0624
     18 C           1.1851    4.3351    6.5636 C.ar    1  UNL1       -0.0617
     19 H           0.5631    5.1615    6.8750 H       1  UNL1        0.0618
     20 C           1.2508    3.9829    5.2258 C.ar    1  UNL1       -0.0612
     21 H           0.6695    4.5269    4.4950 H       1  UNL1        0.0618
     22 C           4.3543    0.9052    0.7904 C.ar    1  UNL1       -0.0617
     23 H           4.5150    0.9333   -0.2772 H       1  UNL1        0.0618
     24 C           4.3144    2.0179    2.9150 C.ar    1  UNL1       -0.0538
     25 H           4.4478    2.9139    3.5039 H       1  UNL1        0.0624
     26 C           5.8097   -5.3424    9.0046 C.ar    1  UNL1       -0.0617
     27 H           6.1769   -6.3033    9.3344 H       1  UNL1        0.0618
     28 C           4.3827   -3.4387    9.3414 C.ar    1  UNL1       -0.0538
     29 H           3.6437   -2.9162    9.9322 H       1  UNL1        0.0624
     30 C           4.0002   -0.2825    1.4083 C.ar    1  UNL1       -0.0612
     31 H           3.8912   -1.1857    0.8260 H       1  UNL1        0.0618
     32 C           4.8506   -4.6755    9.7496 C.ar    1  UNL1       -0.0612
     33 H           4.4674   -5.1192   10.6572 H       1  UNL1        0.0618
     34 C           4.5064    2.0565    1.5463 C.ar    1  UNL1       -0.0612
     35 H           4.7852    2.9868    1.0730 H       1  UNL1        0.0618
     36 C           3.0874   -1.7482    6.3265 C.3     1  UNL1       -0.0199
     37 H           2.3112   -2.3662    6.7905 H       1  UNL1        0.0323
     38 H           3.6279   -2.3659    5.5998 H       1  UNL1        0.0323
     39 C           2.5229   -0.4956    5.6729 C.3     1  UNL1       -0.0199
     40 H           1.9937   -0.7137    4.7400 H       1  UNL1        0.0323
     41 H           1.8162   -0.0075    6.3531 H       1  UNL1        0.0323
     42 C           3.3416   -0.6165    8.9725 C.ar    1  UNL1       -0.0189
     43 C           4.0669   -0.0792   10.0351 C.ar    1  UNL1       -0.0538
     44 H           5.1448   -0.1137   10.0000 H       1  UNL1        0.0624
     45 C           1.9516   -0.5907    9.0265 C.ar    1  UNL1       -0.0538
     46 H           1.3532   -1.0243    8.2389 H       1  UNL1        0.0624
     47 C           3.4243    0.4909   11.1166 C.ar    1  UNL1       -0.0612
     48 H           4.0045    0.9111   11.9246 H       1  UNL1        0.0618
     49 C           2.0402    0.5342   11.1501 C.ar    1  UNL1       -0.0617
     50 H           1.5312    0.9918   11.9854 H       1  UNL1        0.0618
     51 C           1.3099   -0.0165   10.1105 C.ar    1  UNL1       -0.0612
     52 H           0.2297    0.0021   10.1400 H       1  UNL1        0.0618
@<TRIPOS>BOND
     1    23    22    1
     2    22    30   ar
     3    22    34   ar
     4    31    30    1
     5    35    34    1
     6    30    12   ar
     7    34    24   ar
     8    12    13    1
     9    12     5   ar
    10    24    25    1
    11    24     5   ar
    12     5     1    1
    13     7     6    1
    14    21    20    1
    15    40    39    1
    16     6    20   ar
    17     6     4   ar
    18    20    18   ar
    19     1    39    1
    20     1     4    1
    21    38    36    1
    22    39    36    1
    23    39    41    1
    24     4    16   ar
    25    36    37    1
    26    36     2    1
    27    15    14    1
    28    18    19    1
    29    18    10   ar
    30    16    10   ar
    31    16    17    1
    32     9     8    1
    33    14     8   ar
    34    14     3   ar
    35    10    11    1
    36     2     3    1
    37     2    42    1
    38     8    26   ar
    39     3    28   ar
    40    46    45    1
    41    42    45   ar
    42    42    43   ar
    43    26    27    1
    44    26    32   ar
    45    45    51   ar
    46    28    32   ar
    47    28    29    1
    48    32    33    1
    49    44    43    1
    50    43    47   ar
    51    51    52    1
    52    51    49   ar
    53    47    49   ar
    54    47    48    1
    55    49    50    1
