@<TRIPOS>MOLECULE
1,2
 48 50 0 0 0
SMALL
GASTEIGER

@<TRIPOS>ATOM
      1 P           0.8763    0.4941    6.6310 P.3     1  UNL1        0.0000
      2 P           1.1642    1.3364    9.2644 P.3     1  UNL1        0.0000
      3 SI          0.5119   -0.3658    3.7373 Si      1  UNL1        0.0000
      4 C          -0.0239    1.3194    7.8757 C.2     1  UNL1        0.0000
      5 C          -1.2941    1.8540    7.7252 C.2     1  UNL1        0.0000
      6 C          -1.9665    1.7152    6.5094 C.2     1  UNL1        0.0000
      7 H          -2.9587    2.1412    6.4405 H       1  UNL1        0.0000
      8 C          -1.4578    1.0786    5.3873 C.2     1  UNL1        0.0000
      9 H          -2.0944    1.0458    4.5115 H       1  UNL1        0.0000
     10 C          -0.2080    0.4883    5.2793 C.2     1  UNL1        0.0000
     11 C          -1.9545    2.5994    8.8461 C.3     1  UNL1        0.0000
     12 H          -3.0333    2.4590    8.8202 H       1  UNL1        0.0000
     13 H          -1.7496    3.6666    8.7491 H       1  UNL1        0.0000
     14 H          -1.5744    2.2712    9.8115 H       1  UNL1        0.0000
     15 C           1.0504    3.0457    9.8950 C.ar    1  UNL1        0.0000
     16 C           0.7319    3.3904   11.2031 C.ar    1  UNL1        0.0000
     17 H           0.4970    2.6218   11.9263 H       1  UNL1        0.0000
     18 C           0.7083    4.7231   11.5765 C.ar    1  UNL1        0.0000
     19 H           0.4600    4.9884   12.5938 H       1  UNL1        0.0000
     20 C           1.0016    5.7137   10.6545 C.ar    1  UNL1        0.0000
     21 H           0.9821    6.7513   10.9526 H       1  UNL1        0.0000
     22 C           1.3248    5.3734    9.3497 C.ar    1  UNL1        0.0000
     23 H           1.5575    6.1445    8.6303 H       1  UNL1        0.0000
     24 C           1.3562    4.0452    8.9733 C.ar    1  UNL1        0.0000
     25 H           1.6169    3.7678    7.9579 H       1  UNL1        0.0000
     26 C           0.4189    0.3274   10.5814 C.ar    1  UNL1        0.0000
     27 C           1.1939    0.1345   11.7246 C.ar    1  UNL1        0.0000
     28 H           2.1513    0.6366   11.8030 H       1  UNL1        0.0000
     29 C           0.7500   -0.7001   12.7315 C.ar    1  UNL1        0.0000
     30 H           1.3502   -0.8450   13.6175 H       1  UNL1        0.0000
     31 C          -0.4593   -1.3648   12.5945 C.ar    1  UNL1        0.0000
     32 H          -0.8041   -2.0228   13.3781 H       1  UNL1        0.0000
     33 C          -1.2155   -1.2018   11.4461 C.ar    1  UNL1        0.0000
     34 H          -2.1477   -1.7357   11.3324 H       1  UNL1        0.0000
     35 C          -0.7784   -0.3628   10.4358 C.ar    1  UNL1        0.0000
     36 H          -1.3607   -0.2535    9.5307 H       1  UNL1        0.0000
     37 C           0.9468   -2.1382    4.2850 C.3     1  UNL1        0.0000
     38 H           1.6064   -2.1085    5.1507 H       1  UNL1        0.0000
     39 H           1.4572   -2.6874    3.5004 H       1  UNL1        0.0000
     40 H           0.0631   -2.7057    4.5629 H       1  UNL1        0.0000
     41 C          -0.7373   -0.3432    2.3014 C.3     1  UNL1        0.0000
     42 H          -1.6549   -0.8620    2.5597 H       1  UNL1        0.0000
     43 H          -0.3184   -0.8352    1.4303 H       1  UNL1        0.0000
     44 H          -0.9961    0.6700    2.0111 H       1  UNL1        0.0000
     45 C           2.1078    0.5864    3.3170 C.3     1  UNL1        0.0000
     46 H           1.9031    1.6126    3.0252 H       1  UNL1        0.0000
     47 H           2.6534    0.1163    2.5050 H       1  UNL1        0.0000
     48 H           2.7651    0.6141    4.1846 H       1  UNL1        0.0000
@<TRIPOS>BOND
     1    43    41    1
     2    44    41    1
     3    41    42    1
     4    41     3    1
     5    47    45    1
     6    46    45    1
     7    45     3    1
     8    45    48    1
     9    39    37    1
    10     3    37    1
    11     3    10    1
    12    37    40    1
    13    37    38    1
    14     9     8    1
    15    10     8    2
    16    10     1    1
    17     8     6    1
    18     7     6    1
    19     6     5    2
    20     1     4    2
    21     5     4    1
    22     5    11    1
    23     4     2    1
    24    25    24    1
    25    23    22    1
    26    13    11    1
    27    12    11    1
    28    11    14    1
    29    24    22   ar
    30    24    15   ar
    31     2    15    1
    32     2    26    1
    33    22    20   ar
    34    36    35    1
    35    15    16   ar
    36    35    26   ar
    37    35    33   ar
    38    26    27   ar
    39    20    21    1
    40    20    18   ar
    41    16    18   ar
    42    16    17    1
    43    34    33    1
    44    33    31   ar
    45    18    19    1
    46    27    28    1
    47    27    29   ar
    48    31    29   ar
    49    31    32    1
    50    29    30    1
