@<TRIPOS>MOLECULE
1,2
 48 50 0 0 0
SMALL
GASTEIGER

@<TRIPOS>ATOM
      1 P           0.7736    0.5334    6.4895 P.3     1  UNL1        0.0000
      2 P           1.0400    1.4116    9.0794 P.3     1  UNL1        0.0000
      3 SI          0.4812   -0.3962    3.6016 Si      1  UNL1        0.0000
      4 C          -0.1465    1.3828    7.6929 C.2     1  UNL1        0.0000
      5 C          -1.4116    1.9159    7.5065 C.2     1  UNL1        0.0000
      6 C          -2.0559    1.7429    6.2801 C.2     1  UNL1        0.0000
      7 H          -3.0469    2.1655    6.1779 H       1  UNL1        0.0000
      8 C          -1.5220    1.0794    5.1860 C.2     1  UNL1        0.0000
      9 H          -2.1409    1.0234    4.2988 H       1  UNL1        0.0000
     10 C          -0.2675    0.4893    5.1126 C.2     1  UNL1        0.0000
     11 C          -2.0880    2.6919    8.5960 C.3     1  UNL1        0.0000
     12 H          -3.1534    2.4702    8.6248 H       1  UNL1        0.0000
     13 H          -1.9708    3.7611    8.4132 H       1  UNL1        0.0000
     14 H          -1.6483    2.4651    9.5656 H       1  UNL1        0.0000
     15 C           0.9744    3.1267    9.6784 C.ar    1  UNL1        0.0000
     16 C           0.7136    3.4930   10.9936 C.ar    1  UNL1        0.0000
     17 H           0.5048    2.7362   11.7372 H       1  UNL1        0.0000
     18 C           0.7174    4.8314   11.3465 C.ar    1  UNL1        0.0000
     19 H           0.5151    5.1148   12.3691 H       1  UNL1        0.0000
     20 C           0.9795    5.8047   10.3970 C.ar    1  UNL1        0.0000
     21 H           0.9828    6.8469   10.6796 H       1  UNL1        0.0000
     22 C           1.2408    5.4424    9.0843 C.ar    1  UNL1        0.0000
     23 H           1.4470    6.2007    8.3432 H       1  UNL1        0.0000
     24 C           1.2431    4.1087    8.7269 C.ar    1  UNL1        0.0000
     25 H           1.4501    3.8133    7.7033 H       1  UNL1        0.0000
     26 C           0.3087    0.4312   10.4165 C.ar    1  UNL1        0.0000
     27 C           1.1192    0.2168   11.5306 C.ar    1  UNL1        0.0000
     28 H           2.0968    0.6855   11.5686 H       1  UNL1        0.0000
     29 C           0.6836   -0.5957   12.5588 C.ar    1  UNL1        0.0000
     30 H           1.3114   -0.7585   13.4224 H       1  UNL1        0.0000
     31 C          -0.5543   -1.2150   12.4713 C.ar    1  UNL1        0.0000
     32 H          -0.8926   -1.8571   13.2709 H       1  UNL1        0.0000
     33 C          -1.3487   -1.0274   11.3530 C.ar    1  UNL1        0.0000
     34 H          -2.3040   -1.5264   11.2788 H       1  UNL1        0.0000
     35 C          -0.9208   -0.2089   10.3217 C.ar    1  UNL1        0.0000
     36 H          -1.5334   -0.0803    9.4393 H       1  UNL1        0.0000
     37 C           0.9249   -2.1477    4.2056 C.3     1  UNL1        0.0000
     38 H           1.5308   -2.0863    5.1090 H       1  UNL1        0.0000
     39 H           1.4947   -2.6980    3.4637 H       1  UNL1        0.0000
     40 H           0.0399   -2.7318    4.4421 H       1  UNL1        0.0000
     41 C          -0.7547   -0.4242    2.1555 C.3     1  UNL1        0.0000
     42 H          -1.6707   -0.9422    2.4208 H       1  UNL1        0.0000
     43 H          -0.3238   -0.9384    1.3034 H       1  UNL1        0.0000
     44 H          -1.0179    0.5781    1.8332 H       1  UNL1        0.0000
     45 C           2.0681    0.5693    3.1774 C.3     1  UNL1        0.0000
     46 H           1.8497    1.5703    2.8159 H       1  UNL1        0.0000
     47 H           2.6550    0.0648    2.4165 H       1  UNL1        0.0000
     48 H           2.6921    0.6677    4.0651 H       1  UNL1        0.0000
@<TRIPOS>BOND
     1    43    41    1
     2    44    41    1
     3    41    42    1
     4    41     3    1
     5    47    45    1
     6    46    45    1
     7    45     3    1
     8    45    48    1
     9    39    37    1
    10     3    37    1
    11     3    10    1
    12    37    40    1
    13    37    38    1
    14     9     8    1
    15    10     8    2
    16    10     1    1
    17     8     6    1
    18     7     6    1
    19     6     5    2
    20     1     4    2
    21     5     4    1
    22     5    11    1
    23     4     2    1
    24    25    24    1
    25    23    22    1
    26    13    11    1
    27    11    12    1
    28    11    14    1
    29    24    22   ar
    30    24    15   ar
    31     2    15    1
    32     2    26    1
    33    22    20   ar
    34    36    35    1
    35    15    16   ar
    36    35    26   ar
    37    35    33   ar
    38    20    21    1
    39    20    18   ar
    40    26    27   ar
    41    16    18   ar
    42    16    17    1
    43    34    33    1
    44    18    19    1
    45    33    31   ar
    46    27    28    1
    47    27    29   ar
    48    31    29   ar
    49    31    32    1
    50    29    30    1
