@<TRIPOS>MOLECULE
1,2
 48 50 0 0 0
SMALL
GASTEIGER

@<TRIPOS>ATOM
      1 P           0.8085    0.5177    6.5365 P.3     1  UNL1        0.0000
      2 P           1.0888    1.4056    9.1585 P.3     1  UNL1        0.0000
      3 SI          0.4832   -0.3825    3.6479 Si      1  UNL1        0.0000
      4 C          -0.0907    1.3665    7.7606 C.2     1  UNL1        0.0000
      5 C          -1.3579    1.9012    7.5889 C.2     1  UNL1        0.0000
      6 C          -2.0185    1.7395    6.3701 C.2     1  UNL1        0.0000
      7 H          -3.0094    2.1661    6.2843 H       1  UNL1        0.0000
      8 C          -1.5021    1.0839    5.2629 C.2     1  UNL1        0.0000
      9 H          -2.1317    1.0386    4.3826 H       1  UNL1        0.0000
     10 C          -0.2520    0.4900    5.1723 C.2     1  UNL1        0.0000
     11 C          -2.0226    2.6724    8.6893 C.3     1  UNL1        0.0000
     12 H          -3.0996    2.5165    8.6752 H       1  UNL1        0.0000
     13 H          -1.8335    3.7388    8.5565 H       1  UNL1        0.0000
     14 H          -1.6315    2.3810    9.6622 H       1  UNL1        0.0000
     15 C           1.0006    3.1237    9.7550 C.ar    1  UNL1        0.0000
     16 C           0.6925    3.4907   11.0593 C.ar    1  UNL1        0.0000
     17 H           0.4566    2.7345   11.7953 H       1  UNL1        0.0000
     18 C           0.6822    4.8290   11.4119 C.ar    1  UNL1        0.0000
     19 H           0.4416    5.1124   12.4262 H       1  UNL1        0.0000
     20 C           0.9788    5.8024   10.4728 C.ar    1  UNL1        0.0000
     21 H           0.9700    6.8448   10.7548 H       1  UNL1        0.0000
     22 C           1.2904    5.4395    9.1714 C.ar    1  UNL1        0.0000
     23 H           1.5250    6.1973    8.4384 H       1  UNL1        0.0000
     24 C           1.3068    4.1055    8.8151 C.ar    1  UNL1        0.0000
     25 H           1.5542    3.8100    7.8021 H       1  UNL1        0.0000
     26 C           0.3501    0.4183   10.4909 C.ar    1  UNL1        0.0000
     27 C           1.1429    0.2276   11.6219 C.ar    1  UNL1        0.0000
     28 H           2.1083    0.7175   11.6762 H       1  UNL1        0.0000
     29 C           0.7060   -0.5888   12.6462 C.ar    1  UNL1        0.0000
     30 H           1.3202   -0.7320   13.5229 H       1  UNL1        0.0000
     31 C          -0.5153   -1.2371   12.5386 C.ar    1  UNL1        0.0000
     32 H          -0.8550   -1.8816   13.3357 H       1  UNL1        0.0000
     33 C          -1.2907   -1.0749   11.4032 C.ar    1  UNL1        0.0000
     34 H          -2.2323   -1.5965   11.3127 H       1  UNL1        0.0000
     35 C          -0.8607   -0.2529   10.3757 C.ar    1  UNL1        0.0000
     36 H          -1.4585   -0.1445    9.4807 H       1  UNL1        0.0000
     37 C           0.9252   -2.1429    4.2270 C.3     1  UNL1        0.0000
     38 H           1.5462   -2.0951    5.1200 H       1  UNL1        0.0000
     39 H           1.4792   -2.6883    3.4696 H       1  UNL1        0.0000
     40 H           0.0407   -2.7243    4.4714 H       1  UNL1        0.0000
     41 C          -0.7609   -0.3871    2.2085 C.3     1  UNL1        0.0000
     42 H          -1.6773   -0.9052    2.4725 H       1  UNL1        0.0000
     43 H          -0.3374   -0.8913    1.3468 H       1  UNL1        0.0000
     44 H          -1.0225    0.6204    1.9014 H       1  UNL1        0.0000
     45 C           2.0742    0.5775    3.2271 C.3     1  UNL1        0.0000
     46 H           1.8615    1.5892    2.8932 H       1  UNL1        0.0000
     47 H           2.6460    0.0864    2.4462 H       1  UNL1        0.0000
     48 H           2.7104    0.6474    4.1080 H       1  UNL1        0.0000
@<TRIPOS>BOND
     1    43    41    1
     2    44    41    1
     3    41    42    1
     4    41     3    1
     5    47    45    1
     6    46    45    1
     7    45     3    1
     8    45    48    1
     9    39    37    1
    10     3    37    1
    11     3    10    1
    12    37    40    1
    13    37    38    1
    14     9     8    1
    15    10     8    2
    16    10     1    1
    17     8     6    1
    18     7     6    1
    19     6     5    2
    20     1     4    2
    21     5     4    1
    22     5    11    1
    23     4     2    1
    24    25    24    1
    25    23    22    1
    26    13    11    1
    27    12    11    1
    28    11    14    1
    29    24    22   ar
    30    24    15   ar
    31     2    15    1
    32     2    26    1
    33    22    20   ar
    34    36    35    1
    35    15    16   ar
    36    35    26   ar
    37    35    33   ar
    38    20    21    1
    39    20    18   ar
    40    26    27   ar
    41    16    18   ar
    42    16    17    1
    43    34    33    1
    44    33    31   ar
    45    18    19    1
    46    27    28    1
    47    27    29   ar
    48    31    29   ar
    49    31    32    1
    50    29    30    1
