@<TRIPOS>MOLECULE
1,2
 24 23 0 0 0
SMALL
GASTEIGER

@<TRIPOS>ATOM
      1 P          13.1116    7.8084   -0.5757 P.3     1  UNL1       -0.1119
      2 P          14.3120    9.7583    1.4447 P.3     1  UNL1       -0.1119
      3 C          11.5134    6.9670   -0.8757 C.3     1  UNL1       -0.0445
      4 H          10.9773    7.4472   -1.6949 H       1  UNL1        0.0277
      5 H          10.9263    7.0174    0.0414 H       1  UNL1        0.0277
      6 H          11.7008    5.9222   -1.1250 H       1  UNL1        0.0277
      7 C          13.9123    7.6210   -2.2131 C.3     1  UNL1       -0.0445
      8 H          13.2475    7.9571   -3.0094 H       1  UNL1        0.0277
      9 H          14.1685    6.5729   -2.3611 H       1  UNL1        0.0277
     10 H          14.8383    8.1954   -2.2137 H       1  UNL1        0.0277
     11 C          12.5725    9.5736   -0.6491 C.3     1  UNL1       -0.0288
     12 H          12.2476    9.8371   -1.6614 H       1  UNL1        0.0316
     13 H          11.7219    9.6723    0.0354 H       1  UNL1        0.0316
     14 C          13.7319   10.4334   -0.1734 C.3     1  UNL1       -0.0288
     15 H          13.4542   11.4885   -0.0759 H       1  UNL1        0.0316
     16 H          14.5759   10.3477   -0.8675 H       1  UNL1        0.0316
     17 C          15.8596   10.7112    1.6595 C.3     1  UNL1       -0.0445
     18 H          16.6175   10.2713    1.0106 H       1  UNL1        0.0277
     19 H          16.1864   10.6358    2.6969 H       1  UNL1        0.0277
     20 H          15.7001   11.7590    1.4027 H       1  UNL1        0.0277
     21 C          13.2013   10.6364    2.6094 C.3     1  UNL1       -0.0445
     22 H          13.2320   11.7127    2.4372 H       1  UNL1        0.0277
     23 H          13.5165   10.4145    3.6282 H       1  UNL1        0.0277
     24 H          12.1889   10.2557    2.4782 H       1  UNL1        0.0277
@<TRIPOS>BOND
     1     8     7    1
     2     9     7    1
     3    10     7    1
     4     7     1    1
     5     4     3    1
     6    12    11    1
     7     6     3    1
     8     3     1    1
     9     3     5    1
    10    16    14    1
    11    11     1    1
    12    11    14    1
    13    11    13    1
    14    14    15    1
    15    14     2    1
    16    18    17    1
    17    20    17    1
    18     2    17    1
    19     2    21    1
    20    17    19    1
    21    22    21    1
    22    24    21    1
    23    21    23    1
