@<TRIPOS>MOLECULE
1,2
 24 23 0 0 0
SMALL
GASTEIGER

@<TRIPOS>ATOM
      1 P          14.3642    5.2540    1.1510 P.3     1  UNL1       -0.1119
      2 P          15.4529    7.2019    3.2371 P.3     1  UNL1       -0.1119
      3 C          12.8845    4.2450    1.5422 C.3     1  UNL1       -0.0445
      4 H          12.1140    4.4507    0.8002 H       1  UNL1        0.0277
      5 H          12.5048    4.5488    2.5173 H       1  UNL1        0.0277
      6 H          13.1285    3.1822    1.5395 H       1  UNL1        0.0277
      7 C          14.9711    4.4082   -0.3540 C.3     1  UNL1       -0.0445
      8 H          15.1960    3.3632   -0.1383 H       1  UNL1        0.0277
      9 H          15.8673    4.9279   -0.6942 H       1  UNL1        0.0277
     10 H          14.2065    4.4638   -1.1294 H       1  UNL1        0.0277
     11 C          15.5680    4.6105    2.3954 C.3     1  UNL1       -0.0288
     12 H          15.4247    3.5359    2.5526 H       1  UNL1        0.0316
     13 H          16.5676    4.7810    1.9793 H       1  UNL1        0.0316
     14 C          15.3899    5.4090    3.6761 C.3     1  UNL1       -0.0288
     15 H          16.1507    5.1671    4.4260 H       1  UNL1        0.0316
     16 H          14.3970    5.2245    4.1029 H       1  UNL1        0.0316
     17 C          17.2575    7.5138    3.2941 C.3     1  UNL1       -0.0445
     18 H          17.6806    7.1661    4.2371 H       1  UNL1        0.0277
     19 H          17.4335    8.5824    3.1798 H       1  UNL1        0.0277
     20 H          17.7239    7.0067    2.4501 H       1  UNL1        0.0277
     21 C          14.9245    7.9456    4.8242 C.3     1  UNL1       -0.0445
     22 H          15.4387    7.4681    5.6589 H       1  UNL1        0.0277
     23 H          13.8466    7.8130    4.9184 H       1  UNL1        0.0277
     24 H          15.1559    9.0110    4.8143 H       1  UNL1        0.0277
@<TRIPOS>BOND
     1    10     7    1
     2     9     7    1
     3     7     8    1
     4     7     1    1
     5     4     3    1
     6     1     3    1
     7     1    11    1
     8     6     3    1
     9     3     5    1
    10    13    11    1
    11    11    12    1
    12    11    14    1
    13    20    17    1
    14    19    17    1
    15     2    17    1
    16     2    14    1
    17     2    21    1
    18    17    18    1
    19    14    16    1
    20    14    15    1
    21    24    21    1
    22    21    23    1
    23    21    22    1
