@<TRIPOS>MOLECULE
1,2
 52 55 0 0 0
SMALL
GASTEIGER

@<TRIPOS>ATOM
      1 P           1.9164    3.9388    5.4459 P.3     1  UNL1       -0.0435
      2 P           1.3276    6.9432    5.2420 P.3     1  UNL1       -0.0435
      3 C           1.8782    1.2078    6.2267 C.ar    1  UNL1       -0.0538
      4 H           2.9277    1.3042    6.4637 H       1  UNL1        0.0624
      5 C           1.1709    2.2936    5.7218 C.ar    1  UNL1       -0.0189
      6 C          -0.1815    2.1448    5.4266 C.ar    1  UNL1       -0.0538
      7 H          -0.7276    2.9870    5.0232 H       1  UNL1        0.0624
      8 C          -0.1998    7.8819    5.6121 C.ar    1  UNL1       -0.0189
      9 C           3.0219    8.7593    3.9662 C.ar    1  UNL1       -0.0538
     10 H           2.8315    8.1768    3.0751 H       1  UNL1        0.0624
     11 C           1.2403   -0.0055    6.4172 C.ar    1  UNL1       -0.0612
     12 H           1.7988   -0.8456    6.8043 H       1  UNL1        0.0618
     13 C          -0.8167    0.9330    5.6219 C.ar    1  UNL1       -0.0612
     14 H          -1.8647    0.8290    5.3796 H       1  UNL1        0.0618
     15 C          -1.2362    7.2667    6.3095 C.ar    1  UNL1       -0.0538
     16 H          -1.1210    6.2465    6.6500 H       1  UNL1        0.0624
     17 C          -0.3730    9.1861    5.1616 C.ar    1  UNL1       -0.0538
     18 H           0.4304    9.6814    4.6347 H       1  UNL1        0.0624
     19 C          -0.1034   -0.1482    6.1146 C.ar    1  UNL1       -0.0617
     20 H          -0.5935   -1.0998    6.2604 H       1  UNL1        0.0618
     21 C           2.4769    8.3595    5.1788 C.ar    1  UNL1       -0.0189
     22 C           2.7426    9.1036    6.3257 C.ar    1  UNL1       -0.0538
     23 H           2.3064    8.8207    7.2733 H       1  UNL1        0.0624
     24 C          -2.5840    9.2379    6.0956 C.ar    1  UNL1       -0.0617
     25 H          -3.5087    9.7641    6.2812 H       1  UNL1        0.0618
     26 C           3.8179    9.8880    3.8936 C.ar    1  UNL1       -0.0612
     27 H           4.2233   10.1956    2.9426 H       1  UNL1        0.0618
     28 C          -2.4159    7.9428    6.5575 C.ar    1  UNL1       -0.0612
     29 H          -3.2091    7.4570    7.1083 H       1  UNL1        0.0618
     30 C          -1.5608    9.8554    5.3976 C.ar    1  UNL1       -0.0612
     31 H          -1.6855   10.8667    5.0377 H       1  UNL1        0.0618
     32 C           1.3520    4.7685    6.9940 C.3     1  UNL1       -0.0199
     33 H           0.2654    4.6251    7.0148 H       1  UNL1        0.0323
     34 H           1.7741    4.2717    7.8744 H       1  UNL1        0.0323
     35 C           1.7051    6.2472    6.9314 C.3     1  UNL1       -0.0199
     36 H           2.7812    6.3852    7.0863 H       1  UNL1        0.0323
     37 H           1.1636    6.8148    7.6965 H       1  UNL1        0.0323
     38 C           3.6702    3.5619    5.7762 C.ar    1  UNL1       -0.0189
     39 C           4.3163    2.8230    4.7888 C.ar    1  UNL1       -0.0538
     40 H           3.7599    2.5401    3.9051 H       1  UNL1        0.0624
     41 C           4.3795    3.9405    6.9102 C.ar    1  UNL1       -0.0538
     42 H           3.9170    4.5204    7.6950 H       1  UNL1        0.0624
     43 C           5.6373    2.4503    4.9348 C.ar    1  UNL1       -0.0612
     44 H           6.1212    1.8670    4.1658 H       1  UNL1        0.0618
     45 C           6.3397    2.8385    6.0640 C.ar    1  UNL1       -0.0617
     46 H           7.3771    2.5630    6.1784 H       1  UNL1        0.0618
     47 C           4.0970   10.6113    5.0398 C.ar    1  UNL1       -0.0617
     48 H           4.7311   11.4836    4.9861 H       1  UNL1        0.0618
     49 C           3.5611   10.2158    6.2549 C.ar    1  UNL1       -0.0612
     50 H           3.7753   10.7802    7.1514 H       1  UNL1        0.0618
     51 C           5.7100    3.5842    7.0446 C.ar    1  UNL1       -0.0612
     52 H           6.2573    3.8964    7.9219 H       1  UNL1        0.0618
@<TRIPOS>BOND
     1    27    26    1
     2    10     9    1
     3    26     9   ar
     4    26    47   ar
     5    40    39    1
     6     9    21   ar
     7    44    43    1
     8    18    17    1
     9    39    43   ar
    10    39    38   ar
    11    43    45   ar
    12    48    47    1
    13     7     6    1
    14    31    30    1
    15    47    49   ar
    16    17    30   ar
    17    17     8   ar
    18    21     2    1
    19    21    22   ar
    20     2     8    1
    21     2    35    1
    22    14    13    1
    23    30    24   ar
    24     6    13   ar
    25     6     5   ar
    26     1     5    1
    27     1    38    1
    28     1    32    1
    29     8    15   ar
    30    13    19   ar
    31     5     3   ar
    32    38    41   ar
    33    45    46    1
    34    45    51   ar
    35    24    25    1
    36    24    28   ar
    37    19    20    1
    38    19    11   ar
    39     3    11   ar
    40     3     4    1
    41    49    22   ar
    42    49    50    1
    43    15    28   ar
    44    15    16    1
    45    22    23    1
    46    11    12    1
    47    28    29    1
    48    41    51   ar
    49    41    42    1
    50    35    32    1
    51    35    36    1
    52    35    37    1
    53    32    33    1
    54    32    34    1
    55    51    52    1
