@<TRIPOS>MOLECULE
1,2
 52 55 0 0 0
SMALL
GASTEIGER

@<TRIPOS>ATOM
      1 P           0.1792    6.4551    2.0267 P.3     1  UNL1       -0.0435
      2 P           0.8923    3.5121    2.2303 P.3     1  UNL1       -0.0435
      3 C           0.0697    5.4134    0.4841 C.3     1  UNL1       -0.0199
      4 H          -0.9547    5.0187    0.4486 H       1  UNL1        0.0323
      5 H           0.2362    6.0373   -0.3997 H       1  UNL1        0.0323
      6 C          -1.5573    7.0295    2.0709 C.ar    1  UNL1       -0.0189
      7 C           1.0655    4.2678    0.5594 C.3     1  UNL1       -0.0199
      8 H           2.0883    4.6483    0.4854 H       1  UNL1        0.0323
      9 H           0.8895    3.5168   -0.2192 H       1  UNL1        0.0323
     10 C          -0.7196    2.6914    1.9515 C.ar    1  UNL1       -0.0189
     11 C           2.0309    2.0972    2.1429 C.ar    1  UNL1       -0.0189
     12 C           1.7111    0.9232    2.8244 C.ar    1  UNL1       -0.0538
     13 H           0.7651    0.8486    3.3423 H       1  UNL1        0.0624
     14 C           0.9553    7.9782    1.3932 C.ar    1  UNL1       -0.0189
     15 C          -1.8807    3.2801    2.4350 C.ar    1  UNL1       -0.0538
     16 H          -1.8045    4.1773    3.0346 H       1  UNL1        0.0624
     17 C           2.5889   -0.1439    2.8287 C.ar    1  UNL1       -0.0612
     18 H           2.3304   -1.0460    3.3642 H       1  UNL1        0.0618
     19 C          -0.8175    1.5576    1.1487 C.ar    1  UNL1       -0.0538
     20 H           0.0760    1.1021    0.7442 H       1  UNL1        0.0624
     21 C           2.0584    7.9157    0.5468 C.ar    1  UNL1       -0.0538
     22 H           2.4417    6.9608    0.2215 H       1  UNL1        0.0624
     23 C          -2.3579    6.8445    3.1870 C.ar    1  UNL1       -0.0538
     24 H          -1.9397    6.3670    4.0612 H       1  UNL1        0.0624
     25 C           3.2485    2.1867    1.4721 C.ar    1  UNL1       -0.0538
     26 H           3.5328    3.1002    0.9724 H       1  UNL1        0.0624
     27 C          -2.0947    7.6485    0.9434 C.ar    1  UNL1       -0.0538
     28 H          -1.4749    7.8072    0.0715 H       1  UNL1        0.0624
     29 C          -3.1194    2.7340    2.1495 C.ar    1  UNL1       -0.0612
     30 H          -4.0149    3.2040    2.5301 H       1  UNL1        0.0618
     31 C           2.6865    9.0791    0.1407 C.ar    1  UNL1       -0.0612
     32 H           3.5393    9.0201   -0.5186 H       1  UNL1        0.0618
     33 C          -3.4085    8.0733    0.9437 C.ar    1  UNL1       -0.0612
     34 H          -3.8181    8.5536    0.0667 H       1  UNL1        0.0618
     35 C           1.1324   10.3775    1.4232 C.ar    1  UNL1       -0.0612
     36 H           0.7709   11.3363    1.7669 H       1  UNL1        0.0618
     37 C          -3.6735    7.2747    3.1881 C.ar    1  UNL1       -0.0612
     38 H          -4.2842    7.1308    4.0676 H       1  UNL1        0.0618
     39 C          -4.2010    7.8891    2.0670 C.ar    1  UNL1       -0.0617
     40 H          -5.2271    8.2269    2.0644 H       1  UNL1        0.0618
     41 C           0.4959    9.2193    1.8272 C.ar    1  UNL1       -0.0538
     42 H          -0.3670    9.2683    2.4777 H       1  UNL1        0.0624
     43 C          -3.2080    1.5912    1.3736 C.ar    1  UNL1       -0.0617
     44 H          -4.1726    1.1579    1.1529 H       1  UNL1        0.0618
     45 C           4.1147    1.1071    1.4680 C.ar    1  UNL1       -0.0612
     46 H           5.0497    1.1783    0.9327 H       1  UNL1        0.0618
     47 C          -2.0551    1.0082    0.8712 C.ar    1  UNL1       -0.0612
     48 H          -2.1219    0.1231    0.2551 H       1  UNL1        0.0618
     49 C           3.7917   -0.0560    2.1464 C.ar    1  UNL1       -0.0617
     50 H           4.4755   -0.8923    2.1450 H       1  UNL1        0.0618
     51 C           2.2305   10.3100    0.5811 C.ar    1  UNL1       -0.0617
     52 H           2.7293   11.2160    0.2694 H       1  UNL1        0.0618
@<TRIPOS>BOND
     1    32    31    1
     2     5     3    1
     3     9     7    1
     4    34    33    1
     5    28    27    1
     6    31    21   ar
     7    31    51   ar
     8    22    21    1
     9    48    47    1
    10    52    51    1
    11     4     3    1
    12     3     7    1
    13     3     1    1
    14     8     7    1
    15    21    14   ar
    16     7     2    1
    17    51    35   ar
    18    20    19    1
    19    47    19   ar
    20    47    43   ar
    21    46    45    1
    22    27    33   ar
    23    27     6   ar
    24    33    39   ar
    25    26    25    1
    26    19    10   ar
    27    44    43    1
    28    43    29   ar
    29    14    41   ar
    30    14     1    1
    31    35    36    1
    32    35    41   ar
    33    45    25   ar
    34    45    49   ar
    35    25    11   ar
    36    41    42    1
    37    10     2    1
    38    10    15   ar
    39     1     6    1
    40    40    39    1
    41    39    37   ar
    42     6    23   ar
    43    11     2    1
    44    11    12   ar
    45    50    49    1
    46    49    17   ar
    47    29    15   ar
    48    29    30    1
    49    15    16    1
    50    12    17   ar
    51    12    13    1
    52    17    18    1
    53    23    37   ar
    54    23    24    1
    55    37    38    1
