@<TRIPOS>MOLECULE
1,5
 49 52 0 0 0
SMALL
GASTEIGER

@<TRIPOS>ATOM
      1 P           6.9903   11.5229   12.0341 P.3     1  UNL1       -0.0389
      2 C           8.6180   10.6479   12.1505 C.3     1  UNL1        0.0041
      3 H           9.2632   11.0696   11.3653 H       1  UNL1        0.0373
      4 H           8.6005    9.5587   12.0595 H       1  UNL1        0.0373
      5 P           9.1378   11.4202   13.7511 P.3     1  UNL1       -0.0389
      6 C           5.7806   10.1670   12.0910 C.ar    1  UNL1       -0.0186
      7 C           5.9430    9.1528   13.0297 C.ar    1  UNL1       -0.0538
      8 H           6.8171    9.1656   13.6679 H       1  UNL1        0.0624
      9 C           4.9941    8.1567   13.1615 C.ar    1  UNL1       -0.0612
     10 H           5.1365    7.3667   13.8857 H       1  UNL1        0.0618
     11 C           3.8563    8.1779   12.3701 C.ar    1  UNL1       -0.0617
     12 H           3.1122    7.4015   12.4716 H       1  UNL1        0.0618
     13 C           3.6707    9.2020   11.4552 C.ar    1  UNL1       -0.0612
     14 H           2.7781    9.2261   10.8462 H       1  UNL1        0.0618
     15 C           4.6239   10.1943   11.3160 C.ar    1  UNL1       -0.0538
     16 H           4.4811   10.9894   10.5961 H       1  UNL1        0.0624
     17 C           6.9900   11.8446   10.2364 C.ar    1  UNL1       -0.0186
     18 C           7.0314   10.7706    9.3485 C.ar    1  UNL1       -0.0538
     19 H           6.9954    9.7585    9.7316 H       1  UNL1        0.0624
     20 C           7.1093   10.9952    7.9884 C.ar    1  UNL1       -0.0612
     21 H           7.1361   10.1584    7.3048 H       1  UNL1        0.0618
     22 C           7.1572   12.2921    7.4991 C.ar    1  UNL1       -0.0617
     23 H           7.2192   12.4647    6.4344 H       1  UNL1        0.0618
     24 C           7.1329   13.3621    8.3757 C.ar    1  UNL1       -0.0612
     25 H           7.1817   14.3736    7.9987 H       1  UNL1        0.0618
     26 C           7.0517   13.1383    9.7395 C.ar    1  UNL1       -0.0538
     27 H           7.0443   13.9709   10.4285 H       1  UNL1        0.0624
     28 C          10.9055   11.7139   13.3908 C.ar    1  UNL1       -0.0186
     29 C          11.4785   12.9419   13.6745 C.ar    1  UNL1       -0.0538
     30 H          10.8509   13.7132   14.0974 H       1  UNL1        0.0624
     31 C          12.8176   13.1700   13.4110 C.ar    1  UNL1       -0.0612
     32 H          13.2569   14.1329   13.6294 H       1  UNL1        0.0618
     33 C          13.5915   12.1618   12.8638 C.ar    1  UNL1       -0.0617
     34 H          14.6370   12.3349   12.6537 H       1  UNL1        0.0618
     35 C          13.0261   10.9263   12.5845 C.ar    1  UNL1       -0.0612
     36 H          13.6332   10.1388   12.1605 H       1  UNL1        0.0618
     37 C          11.6901   10.6992   12.8484 C.ar    1  UNL1       -0.0538
     38 H          11.2499    9.7328   12.6388 H       1  UNL1        0.0624
     39 C           9.4695   10.0331   14.9008 C.ar    1  UNL1       -0.0186
     40 C          10.0033   10.4326   16.1248 C.ar    1  UNL1       -0.0538
     41 H          10.1658   11.4900   16.2932 H       1  UNL1        0.0624
     42 C          10.3217    9.5078   17.0980 C.ar    1  UNL1       -0.0612
     43 H          10.7373    9.8326   18.0414 H       1  UNL1        0.0618
     44 C          10.1069    8.1587   16.8609 C.ar    1  UNL1       -0.0617
     45 H          10.3494    7.4288   17.6193 H       1  UNL1        0.0618
     46 C           9.5881    7.7501   15.6456 C.ar    1  UNL1       -0.0612
     47 H           9.4291    6.6983   15.4526 H       1  UNL1        0.0618
     48 C           9.2743    8.6788   14.6665 C.ar    1  UNL1       -0.0538
     49 H           8.8854    8.3241   13.7223 H       1  UNL1        0.0624
@<TRIPOS>BOND
     1    23    22    1
     2    21    20    1
     3    22    20   ar
     4    22    24   ar
     5    20    18   ar
     6    25    24    1
     7    24    26   ar
     8    18    19    1
     9    18    17   ar
    10    26    17   ar
    11    26    27    1
    12    17     1    1
    13    16    15    1
    14    14    13    1
    15    15    13   ar
    16    15     6   ar
    17     3     2    1
    18    13    11   ar
    19     1     6    1
    20     1     2    1
    21     4     2    1
    22     6     7   ar
    23     2     5    1
    24    36    35    1
    25    11    12    1
    26    11     9   ar
    27    35    37   ar
    28    35    33   ar
    29    38    37    1
    30    34    33    1
    31    37    28   ar
    32    33    31   ar
    33     7     9   ar
    34     7     8    1
    35     9    10    1
    36    28    29   ar
    37    28     5    1
    38    31    32    1
    39    31    29   ar
    40    29    30    1
    41    49    48    1
    42     5    39    1
    43    48    39   ar
    44    48    46   ar
    45    39    40   ar
    46    47    46    1
    47    46    44   ar
    48    40    41    1
    49    40    42   ar
    50    44    42   ar
    51    44    45    1
    52    42    43    1
