@<TRIPOS>MOLECULE
1,2
 95 100 0 0 0
SMALL
GASTEIGER

@<TRIPOS>ATOM
      1 P           4.5445    7.6227   23.3915 P.3     1  UNL1        0.0000
      2 P           4.5302    4.5542   20.4918 P.3     1  UNL1        0.0000
      3 SI          4.4214    4.6267   23.5251 Si      1  UNL1        0.0000
      4 C           3.2177    3.6506   24.6769 C.3     1  UNL1        0.0000
      5 H           2.4729    4.2895   25.1373 H       1  UNL1        0.0000
      6 H           3.7693    3.1660   25.4733 H       1  UNL1        0.0000
      7 H           2.6962    2.8779   24.1220 H       1  UNL1        0.0000
      8 C           5.6916    6.8909   24.6025 C.ar    1  UNL1        0.0000
      9 C           5.5889    5.5080   24.7411 C.ar    1  UNL1        0.0000
     10 C           6.3518    4.8711   25.7068 C.ar    1  UNL1        0.0000
     11 H           6.2627    3.8038   25.8363 H       1  UNL1        0.0000
     12 C           7.2334    5.5818   26.5021 C.ar    1  UNL1        0.0000
     13 H           7.8293    5.0710   27.2452 H       1  UNL1        0.0000
     14 C           7.3598    6.9502   26.3334 C.ar    1  UNL1        0.0000
     15 H           8.0596    7.5099   26.9382 H       1  UNL1        0.0000
     16 C           6.5840    7.6065   25.3941 C.ar    1  UNL1        0.0000
     17 H           6.6953    8.6750   25.2811 H       1  UNL1        0.0000
     18 C           5.4712    3.2285   21.3157 C.ar    1  UNL1        0.0000
     19 C           5.3814    3.2080   22.7047 C.ar    1  UNL1        0.0000
     20 C           5.9734    2.1656   23.3998 C.ar    1  UNL1        0.0000
     21 H           5.8764    2.1212   24.4732 H       1  UNL1        0.0000
     22 C           6.6798    1.1766   22.7394 C.ar    1  UNL1        0.0000
     23 H           7.1402    0.3718   23.2948 H       1  UNL1        0.0000
     24 C           6.8027    1.2257   21.3608 C.ar    1  UNL1        0.0000
     25 H           7.3678    0.4665   20.8381 H       1  UNL1        0.0000
     26 C           6.1931    2.2429   20.6489 C.ar    1  UNL1        0.0000
     27 H           6.3012    2.2637   19.5741 H       1  UNL1        0.0000
     28 C           3.3040    8.3884   24.5727 C.3     1  UNL1        0.0000
     29 H           2.6894    9.0582   23.9590 H       1  UNL1        0.0000
     30 C           3.8502    9.1915   25.7501 C.3     1  UNL1        0.0000
     31 H           4.4622   10.0253   25.4008 H       1  UNL1        0.0000
     32 H           4.4688    8.5499   26.3804 H       1  UNL1        0.0000
     33 C           2.6924    9.7399   26.5841 C.3     1  UNL1        0.0000
     34 H           3.0881   10.3181   27.4222 H       1  UNL1        0.0000
     35 H           2.0868   10.4130   25.9710 H       1  UNL1        0.0000
     36 C           1.8179    8.6041   27.1046 C.3     1  UNL1        0.0000
     37 H           2.4125    7.9614   27.7579 H       1  UNL1        0.0000
     38 H           0.9905    9.0082   27.6922 H       1  UNL1        0.0000
     39 C           1.2796    7.7778   25.9411 C.3     1  UNL1        0.0000
     40 H           0.6267    8.4043   25.3261 H       1  UNL1        0.0000
     41 H           0.6820    6.9446   26.3185 H       1  UNL1        0.0000
     42 C           2.4312    7.2499   25.0921 C.3     1  UNL1        0.0000
     43 H           3.0522    6.5782   25.6921 H       1  UNL1        0.0000
     44 H           2.0483    6.6731   24.2445 H       1  UNL1        0.0000
     45 C           5.4957    9.1149   22.8179 C.3     1  UNL1        0.0000
     46 H           5.7685    9.7182   23.6930 H       1  UNL1        0.0000
     47 C           6.7578    8.6416   22.1064 C.3     1  UNL1        0.0000
     48 H           6.4465    8.0111   21.2731 H       1  UNL1        0.0000
     49 H           7.3615    8.0275   22.7799 H       1  UNL1        0.0000
     50 C           7.5712    9.8162   21.5758 C.3     1  UNL1        0.0000
     51 H           7.8972   10.4474   22.4072 H       1  UNL1        0.0000
     52 H           8.4644    9.4457   21.0677 H       1  UNL1        0.0000
     53 C           6.7249   10.6412   20.6122 C.3     1  UNL1        0.0000
     54 H           6.4404   10.0191   19.7602 H       1  UNL1        0.0000
     55 H           7.2998   11.4892   20.2327 H       1  UNL1        0.0000
     56 C           5.4661   11.1364   21.3154 C.3     1  UNL1        0.0000
     57 H           4.8500   11.7119   20.6198 H       1  UNL1        0.0000
     58 H           5.7496   11.8009   22.1365 H       1  UNL1        0.0000
     59 C           4.6574    9.9664   21.8706 C.3     1  UNL1        0.0000
     60 H           4.3193    9.3244   21.0512 H       1  UNL1        0.0000
     61 H           3.7796   10.3570   22.3934 H       1  UNL1        0.0000
     62 C           3.1896    3.5242   19.6701 C.3     1  UNL1        0.0000
     63 H           2.4426    4.2630   19.3444 H       1  UNL1        0.0000
     64 C           3.5500    2.6541   18.4692 C.3     1  UNL1        0.0000
     65 H           4.2804    1.8998   18.7652 H       1  UNL1        0.0000
     66 H           3.9762    3.2572   17.6650 H       1  UNL1        0.0000
     67 C           2.2976    1.9474   17.9493 C.3     1  UNL1        0.0000
     68 H           1.5719    2.6934   17.6136 H       1  UNL1        0.0000
     69 H           2.5587    1.3270   17.0887 H       1  UNL1        0.0000
     70 C           1.6691    1.0851   19.0392 C.3     1  UNL1        0.0000
     71 H           2.3762    0.3078   19.3380 H       1  UNL1        0.0000
     72 H           0.7723    0.5938   18.6553 H       1  UNL1        0.0000
     73 C           1.3193    1.9405   20.2529 C.3     1  UNL1        0.0000
     74 H           0.5565    2.6708   19.9681 H       1  UNL1        0.0000
     75 H           0.9008    1.3148   21.0445 H       1  UNL1        0.0000
     76 C           2.5661    2.6563   20.7637 C.3     1  UNL1        0.0000
     77 H           2.3318    3.2772   21.6335 H       1  UNL1        0.0000
     78 H           3.2957    1.9094   21.0874 H       1  UNL1        0.0000
     79 C           5.6969    4.9611   19.1004 C.3     1  UNL1        0.0000
     80 H           5.8610    4.0500   18.5113 H       1  UNL1        0.0000
     81 C           7.0263    5.4182   19.6935 C.3     1  UNL1        0.0000
     82 H           7.4516    4.6253   20.3141 H       1  UNL1        0.0000
     83 H           6.8359    6.2730   20.3420 H       1  UNL1        0.0000
     84 C           8.0120    5.8149   18.5998 C.3     1  UNL1        0.0000
     85 H           8.9464    6.1517   19.0539 H       1  UNL1        0.0000
     86 H           8.2381    4.9462   17.9749 H       1  UNL1        0.0000
     87 C           7.4223    6.9221   17.7332 C.3     1  UNL1        0.0000
     88 H           8.1282    7.2054   16.9490 H       1  UNL1        0.0000
     89 H           7.2359    7.8020   18.3531 H       1  UNL1        0.0000
     90 C           6.1109    6.4536   17.1128 C.3     1  UNL1        0.0000
     91 H           6.3062    5.5994   16.4581 H       1  UNL1        0.0000
     92 H           5.6787    7.2495   16.5011 H       1  UNL1        0.0000
     93 C           5.1200    6.0457   18.1991 C.3     1  UNL1        0.0000
     94 H           4.8797    6.9085   18.8251 H       1  UNL1        0.0000
     95 H           4.1952    5.6922   17.7337 H       1  UNL1        0.0000
@<TRIPOS>BOND
     1    91    90    1
     2    92    90    1
     3    88    87    1
     4    69    67    1
     5    90    87    1
     6    90    93    1
     7    68    67    1
     8    66    64    1
     9    87    89    1
    10    87    84    1
    11    95    93    1
    12    67    64    1
    13    67    70    1
    14    86    84    1
    15    93    94    1
    16    93    79    1
    17    64    65    1
    18    64    62    1
    19    80    79    1
    20    84    85    1
    21    84    81    1
    22    72    70    1
    23    70    71    1
    24    70    73    1
    25    79    81    1
    26    79     2    1
    27    63    62    1
    28    27    26    1
    29    62     2    1
    30    62    76    1
    31    81    82    1
    32    81    83    1
    33    54    53    1
    34    74    73    1
    35    55    53    1
    36    73    76    1
    37    73    75    1
    38     2    18    1
    39    53    56    1
    40    53    50    1
    41    57    56    1
    42    26    18   ar
    43    26    24   ar
    44    76    78    1
    45    76    77    1
    46    25    24    1
    47    60    59    1
    48    52    50    1
    49    48    47    1
    50    56    59    1
    51    56    58    1
    52    18    19   ar
    53    24    22   ar
    54    50    47    1
    55    50    51    1
    56    59    61    1
    57    59    45    1
    58    47    49    1
    59    47    45    1
    60    19    20   ar
    61    19     3    1
    62    22    23    1
    63    22    20   ar
    64    45     1    1
    65    45    46    1
    66     1    28    1
    67     1     8    1
    68    20    21    1
    69     3     4    1
    70     3     9    1
    71    29    28    1
    72     7     4    1
    73    44    42    1
    74    28    42    1
    75    28    30    1
    76     8     9   ar
    77     8    16   ar
    78     4     5    1
    79     4     6    1
    80     9    10   ar
    81    42    43    1
    82    42    39    1
    83    17    16    1
    84    40    39    1
    85    16    14   ar
    86    31    30    1
    87    10    11    1
    88    10    12   ar
    89    30    32    1
    90    30    33    1
    91    39    41    1
    92    39    36    1
    93    35    33    1
    94    14    12   ar
    95    14    15    1
    96    12    13    1
    97    33    36    1
    98    33    34    1
    99    36    38    1
   100    36    37    1
