@<TRIPOS>MOLECULE
1,2
 52 55 0 0 0
SMALL
GASTEIGER

@<TRIPOS>ATOM
      1 P           7.5422   11.5184    5.4895 P.3     1  UNL1       -0.0435
      2 P           5.5833   10.6501    7.6214 P.3     1  UNL1       -0.0435
      3 C           8.1326   10.2615    6.7363 C.3     1  UNL1       -0.0199
      4 H           9.2125   10.3649    6.8816 H       1  UNL1        0.0323
      5 H           7.9442    9.2866    6.2711 H       1  UNL1        0.0323
      6 C           7.3580   10.3736    8.0407 C.3     1  UNL1       -0.0199
      7 H           7.4760    9.4897    8.6768 H       1  UNL1        0.0323
      8 H           7.6715   11.2562    8.6095 H       1  UNL1        0.0323
      9 C           7.8087   10.4548    4.0183 C.ar    1  UNL1       -0.0189
     10 C           9.0239   10.3447    3.3510 C.ar    1  UNL1       -0.0538
     11 H           9.8721   10.9388    3.6589 H       1  UNL1        0.0624
     12 C           9.1528    9.4695    2.2871 C.ar    1  UNL1       -0.0612
     13 H          10.0981    9.3951    1.7686 H       1  UNL1        0.0618
     14 C           8.0807    8.6899    1.8859 C.ar    1  UNL1       -0.0617
     15 H           8.1851    8.0174    1.0468 H       1  UNL1        0.0618
     16 C           6.8796    8.7691    2.5706 C.ar    1  UNL1       -0.0612
     17 H           6.0422    8.1564    2.2689 H       1  UNL1        0.0618
     18 C           6.7483    9.6389    3.6364 C.ar    1  UNL1       -0.0538
     19 H           5.8129    9.7088    4.1774 H       1  UNL1        0.0624
     20 C           8.9523   12.6642    5.3636 C.ar    1  UNL1       -0.0189
     21 C           9.7127   13.0010    6.4799 C.ar    1  UNL1       -0.0538
     22 H           9.5212   12.5262    7.4297 H       1  UNL1        0.0624
     23 C          10.6965   13.9694    6.3837 C.ar    1  UNL1       -0.0612
     24 H          11.2738   14.2328    7.2586 H       1  UNL1        0.0618
     25 C          10.9349   14.6077    5.1779 C.ar    1  UNL1       -0.0617
     26 H          11.7024   15.3648    5.1076 H       1  UNL1        0.0618
     27 C          10.1847   14.2740    4.0615 C.ar    1  UNL1       -0.0612
     28 H          10.3637   14.7678    3.1172 H       1  UNL1        0.0618
     29 C           9.1945   13.3136    4.1541 C.ar    1  UNL1       -0.0538
     30 H           8.6040   13.0597    3.2849 H       1  UNL1        0.0624
     31 C           5.0010    8.9947    7.1043 C.ar    1  UNL1       -0.0189
     32 C           3.6836    8.9367    6.6540 C.ar    1  UNL1       -0.0538
     33 H           3.1079    9.8478    6.6073 H       1  UNL1        0.0624
     34 C           3.1166    7.7357    6.2734 C.ar    1  UNL1       -0.0612
     35 H           2.0892    7.7120    5.9393 H       1  UNL1        0.0618
     36 C           3.8675    6.5720    6.3227 C.ar    1  UNL1       -0.0617
     37 H           3.4318    5.6259    6.0337 H       1  UNL1        0.0618
     38 C           5.1828    6.6215    6.7524 C.ar    1  UNL1       -0.0612
     39 H           5.7717    5.7159    6.7903 H       1  UNL1        0.0618
     40 C           5.7483    7.8219    7.1469 C.ar    1  UNL1       -0.0538
     41 H           6.7687    7.8220    7.5000 H       1  UNL1        0.0624
     42 C           4.8785   10.7526    9.2999 C.ar    1  UNL1       -0.0189
     43 C           4.2251    9.6966    9.9258 C.ar    1  UNL1       -0.0538
     44 H           4.1191    8.7464    9.4221 H       1  UNL1        0.0624
     45 C           3.6956    9.8682   11.1930 C.ar    1  UNL1       -0.0612
     46 H           3.1850    9.0464   11.6746 H       1  UNL1        0.0618
     47 C           3.8112   11.0865   11.8420 C.ar    1  UNL1       -0.0617
     48 H           3.3864   11.2159   12.8268 H       1  UNL1        0.0618
     49 C           4.4706   12.1383   11.2255 C.ar    1  UNL1       -0.0612
     50 H           4.5628   13.0917   11.7254 H       1  UNL1        0.0618
     51 C           5.0026   11.9720    9.9610 C.ar    1  UNL1       -0.0538
     52 H           5.5149   12.7879    9.4679 H       1  UNL1        0.0624
@<TRIPOS>BOND
     1    15    14    1
     2    13    12    1
     3    14    12   ar
     4    14    16   ar
     5    17    16    1
     6    12    10   ar
     7    16    18   ar
     8    28    27    1
     9    30    29    1
    10    10    11    1
    11    10     9   ar
    12    18     9   ar
    13    18    19    1
    14     9     1    1
    15    27    29   ar
    16    27    25   ar
    17    29    20   ar
    18    26    25    1
    19    25    23   ar
    20    20     1    1
    21    20    21   ar
    22     1     3    1
    23    35    34    1
    24    37    36    1
    25     5     3    1
    26    34    36   ar
    27    34    32   ar
    28    36    38   ar
    29    23    21   ar
    30    23    24    1
    31    21    22    1
    32    33    32    1
    33    32    31   ar
    34     3     4    1
    35     3     6    1
    36    38    39    1
    37    38    40   ar
    38    31    40   ar
    39    31     2    1
    40    40    41    1
    41     2     6    1
    42     2    42    1
    43     6     8    1
    44     6     7    1
    45    42    43   ar
    46    42    51   ar
    47    44    43    1
    48    52    51    1
    49    43    45   ar
    50    51    49   ar
    51    45    46    1
    52    45    47   ar
    53    49    50    1
    54    49    47   ar
    55    47    48    1
