@<TRIPOS>MOLECULE
1,2
 52 55 0 0 0
SMALL
GASTEIGER

@<TRIPOS>ATOM
      1 P           3.5084   13.2941    6.8341 P.3     1  UNL1       -0.0435
      2 P           5.4658   14.1608    4.7016 P.3     1  UNL1       -0.0435
      3 C           2.9157   14.5477    5.5850 C.3     1  UNL1       -0.0199
      4 H           1.8361   14.4419    5.4393 H       1  UNL1        0.0323
      5 H           3.1018   15.5239    6.0486 H       1  UNL1        0.0323
      6 C           3.6911   14.4352    4.2810 C.3     1  UNL1       -0.0199
      7 H           3.5725   15.3186    3.6441 H       1  UNL1        0.0323
      8 H           3.3785   13.5520    3.7129 H       1  UNL1        0.0323
      9 C           3.2435   14.3618    8.3027 C.ar    1  UNL1       -0.0189
     10 C           2.0282   14.4754    8.9693 C.ar    1  UNL1       -0.0538
     11 H           1.1794   13.8813    8.6629 H       1  UNL1        0.0624
     12 C           1.9002   15.3539   10.0306 C.ar    1  UNL1       -0.0612
     13 H           0.9548   15.4311   10.5485 H       1  UNL1        0.0618
     14 C           2.9732   16.1332   10.4299 C.ar    1  UNL1       -0.0617
     15 H           2.8694   16.8084   11.2669 H       1  UNL1        0.0618
     16 C           4.1744   16.0504    9.7458 C.ar    1  UNL1       -0.0612
     17 H           5.0125   16.6629   10.0459 H       1  UNL1        0.0618
     18 C           4.3049   15.1773    8.6825 C.ar    1  UNL1       -0.0538
     19 H           5.2402   15.1048    8.1420 H       1  UNL1        0.0624
     20 C           2.0985   12.1486    6.9652 C.ar    1  UNL1       -0.0189
     21 C           1.3374   11.8078    5.8505 C.ar    1  UNL1       -0.0538
     22 H           1.5284   12.2794    4.8990 H       1  UNL1        0.0624
     23 C           0.3536   10.8397    5.9507 C.ar    1  UNL1       -0.0612
     24 H          -0.2243   10.5734    5.0771 H       1  UNL1        0.0618
     25 C           0.1161   10.2056    7.1589 C.ar    1  UNL1       -0.0617
     26 H          -0.6512    9.4486    7.2323 H       1  UNL1        0.0618
     27 C           0.8671   10.5431    8.2735 C.ar    1  UNL1       -0.0612
     28 H           0.6888   10.0525    9.2196 H       1  UNL1        0.0618
     29 C           1.8571   11.5033    8.1771 C.ar    1  UNL1       -0.0538
     30 H           2.4480   11.7603    9.0451 H       1  UNL1        0.0624
     31 C           6.0461   15.8171    5.2179 C.ar    1  UNL1       -0.0189
     32 C           7.3627   15.8764    5.6703 C.ar    1  UNL1       -0.0538
     33 H           7.9388   14.9656    5.7192 H       1  UNL1        0.0624
     34 C           7.9284   17.0782    6.0503 C.ar    1  UNL1       -0.0612
     35 H           8.9554   17.1028    6.3856 H       1  UNL1        0.0618
     36 C           7.1769   18.2414    5.9985 C.ar    1  UNL1       -0.0617
     37 H           7.6114   19.1881    6.2873 H       1  UNL1        0.0618
     38 C           5.8623   18.1906    5.5669 C.ar    1  UNL1       -0.0612
     39 H           5.2729   19.0957    5.5271 H       1  UNL1        0.0618
     40 C           5.2981   16.9894    5.1726 C.ar    1  UNL1       -0.0538
     41 H           4.2783   16.9883    4.8179 H       1  UNL1        0.0624
     42 C           6.1718   14.0581    3.0236 C.ar    1  UNL1       -0.0189
     43 C           6.8274   15.1135    2.3987 C.ar    1  UNL1       -0.0538
     44 H           6.9337   16.0635    2.9025 H       1  UNL1        0.0624
     45 C           7.3585   14.9413    1.1322 C.ar    1  UNL1       -0.0612
     46 H           7.8708   15.7625    0.6514 H       1  UNL1        0.0618
     47 C           7.2426   13.7231    0.4830 C.ar    1  UNL1       -0.0617
     48 H           7.6688   13.5932   -0.5011 H       1  UNL1        0.0618
     49 C           6.5811   12.6720    1.0986 C.ar    1  UNL1       -0.0612
     50 H           6.4886   11.7188    0.5985 H       1  UNL1        0.0618
     51 C           6.0474   12.8390    2.3622 C.ar    1  UNL1       -0.0538
     52 H           5.5333   12.0236    2.8545 H       1  UNL1        0.0624
@<TRIPOS>BOND
     1    48    47    1
     2    47    49   ar
     3    47    45   ar
     4    50    49    1
     5    46    45    1
     6    49    51   ar
     7    45    43   ar
     8    51    52    1
     9    51    42   ar
    10    43    44    1
    11    43    42   ar
    12    42     2    1
    13     7     6    1
    14     8     6    1
    15     6     2    1
    16     6     3    1
    17     2    31    1
    18    41    40    1
    19    22    21    1
    20    24    23    1
    21    40    31   ar
    22    40    38   ar
    23    31    32   ar
    24     4     3    1
    25    39    38    1
    26    38    36   ar
    27     3     5    1
    28     3     1    1
    29    32    33    1
    30    32    34   ar
    31    21    23   ar
    32    21    20   ar
    33    23    25   ar
    34    36    34   ar
    35    36    37    1
    36    34    35    1
    37     1    20    1
    38     1     9    1
    39    20    29   ar
    40    25    26    1
    41    25    27   ar
    42    19    18    1
    43    29    27   ar
    44    29    30    1
    45    27    28    1
    46     9    18   ar
    47     9    10   ar
    48    11    10    1
    49    18    16   ar
    50    10    12   ar
    51    16    17    1
    52    16    14   ar
    53    12    14   ar
    54    12    13    1
    55    14    15    1
