@<TRIPOS>MOLECULE
1,16
 52 55 0 0 0
SMALL
GASTEIGER

@<TRIPOS>ATOM
      1 P           5.1256    4.3267    3.3243 P.3     1  UNL1       -0.0435
      2 C           6.7985    4.6017    3.9991 C.ar    1  UNL1       -0.0189
      3 C           7.3537    5.8724    4.1261 C.ar    1  UNL1       -0.0538
      4 C           8.5928    6.0329    4.7219 C.ar    1  UNL1       -0.0612
      5 C           9.2878    4.9363    5.2024 C.ar    1  UNL1       -0.0617
      6 C           8.7424    3.6684    5.0779 C.ar    1  UNL1       -0.0612
      7 C           7.5088    3.5016    4.4791 C.ar    1  UNL1       -0.0538
      8 C           5.4575    2.8756    2.2632 C.ar    1  UNL1       -0.0189
      9 C           6.6363    2.7712    1.5291 C.ar    1  UNL1       -0.0538
     10 C           6.8394    1.6876    0.6955 C.ar    1  UNL1       -0.0612
     11 C           5.8712    0.7015    0.5831 C.ar    1  UNL1       -0.0617
     12 C           4.6962    0.8025    1.3085 C.ar    1  UNL1       -0.0612
     13 C           4.4911    1.8868    2.1442 C.ar    1  UNL1       -0.0538
     14 C           5.0736    5.5989    1.9797 C.3     1  UNL1       -0.0199
     15 C           3.7680    5.3928    1.2350 C.3     1  UNL1       -0.0199
     16 P           2.3460    5.3117    2.4480 P.3     1  UNL1       -0.0435
     17 C           1.1377    4.4617    1.3671 C.ar    1  UNL1       -0.0189
     18 C           1.4835    3.2864    0.7090 C.ar    1  UNL1       -0.0538
     19 C           0.5772    2.6515   -0.1208 C.ar    1  UNL1       -0.0612
     20 C          -0.6957    3.1684   -0.2890 C.ar    1  UNL1       -0.0617
     21 C          -1.0617    4.3180    0.3915 C.ar    1  UNL1       -0.0612
     22 C          -0.1550    4.9591    1.2147 C.ar    1  UNL1       -0.0538
     23 C           1.6913    7.0146    2.2773 C.ar    1  UNL1       -0.0189
     24 C           1.5149    7.6140    1.0301 C.ar    1  UNL1       -0.0538
     25 C           1.0007    8.8925    0.9407 C.ar    1  UNL1       -0.0612
     26 C           0.6462    9.5872    2.0877 C.ar    1  UNL1       -0.0617
     27 C           0.7877    8.9868    3.3253 C.ar    1  UNL1       -0.0612
     28 C           1.3015    7.7053    3.4145 C.ar    1  UNL1       -0.0538
     29 H           6.8172    6.7448    3.7861 H       1  UNL1        0.0624
     30 H           9.0117    7.0243    4.8158 H       1  UNL1        0.0618
     31 H          10.2512    5.0674    5.6733 H       1  UNL1        0.0618
     32 H           9.2763    2.8060    5.4504 H       1  UNL1        0.0618
     33 H           7.0870    2.5114    4.3805 H       1  UNL1        0.0624
     34 H           7.4000    3.5328    1.6198 H       1  UNL1        0.0624
     35 H           7.7571    1.6098    0.1302 H       1  UNL1        0.0618
     36 H           6.0358   -0.1439   -0.0689 H       1  UNL1        0.0618
     37 H           3.9383    0.0365    1.2249 H       1  UNL1        0.0618
     38 H           3.5775    1.9819    2.7225 H       1  UNL1        0.0624
     39 H           5.0995    6.6002    2.4207 H       1  UNL1        0.0323
     40 H           5.9377    5.4780    1.3156 H       1  UNL1        0.0323
     41 H           3.6051    6.1908    0.5056 H       1  UNL1        0.0323
     42 H           3.8058    4.4365    0.7019 H       1  UNL1        0.0323
     43 H           2.4629    2.8526    0.8510 H       1  UNL1        0.0624
     44 H           0.8651    1.7459   -0.6351 H       1  UNL1        0.0618
     45 H          -1.4020    2.6729   -0.9389 H       1  UNL1        0.0618
     46 H          -2.0583    4.7207    0.2791 H       1  UNL1        0.0618
     47 H          -0.4561    5.8500    1.7481 H       1  UNL1        0.0624
     48 H           1.7535    7.0743    0.1231 H       1  UNL1        0.0624
     49 H           0.8712    9.3502   -0.0298 H       1  UNL1        0.0618
     50 H           0.2521   10.5899    2.0102 H       1  UNL1        0.0618
     51 H           0.5039    9.5098    4.2265 H       1  UNL1        0.0618
     52 H           1.4032    7.2349    4.3820 H       1  UNL1        0.0624
@<TRIPOS>BOND
     1    45    20    1
     2    44    19    1
     3    20    19   ar
     4    20    21   ar
     5    19    18   ar
     6    36    11    1
     7    49    25    1
     8    48    24    1
     9    35    10    1
    10    46    21    1
    11    21    22   ar
    12    41    15    1
    13    11    10   ar
    14    11    12   ar
    15    10     9   ar
    16    42    15    1
    17    18    43    1
    18    18    17   ar
    19    25    24   ar
    20    25    26   ar
    21    24    23   ar
    22    22    17   ar
    23    22    47    1
    24    37    12    1
    25    15    14    1
    26    15    16    1
    27    12    13   ar
    28    40    14    1
    29    17    16    1
    30     9    34    1
    31     9     8   ar
    32    14    39    1
    33    14     1    1
    34    50    26    1
    35    26    27   ar
    36    13     8   ar
    37    13    38    1
    38     8     1    1
    39    23    16    1
    40    23    28   ar
    41     1     2    1
    42    27    28   ar
    43    27    51    1
    44    28    52    1
    45    29     3    1
    46     2     3   ar
    47     2     7   ar
    48     3     4   ar
    49    33     7    1
    50     7     6   ar
    51     4    30    1
    52     4     5   ar
    53     6     5   ar
    54     6    32    1
    55     5    31    1
