@<TRIPOS>MOLECULE
1,16
 52 55 0 0 0
SMALL
GASTEIGER

@<TRIPOS>ATOM
      1 P           1.2287    4.8579    6.0028 P.3     1  UNL1       -0.0435
      2 C           0.9152    6.5215    6.7014 C.ar    1  UNL1       -0.0189
      3 C           1.8962    7.0694    7.5240 C.ar    1  UNL1       -0.0538
      4 C           1.7647    8.3514    8.0220 C.ar    1  UNL1       -0.0612
      5 C           0.6513    9.1082    7.6983 C.ar    1  UNL1       -0.0617
      6 C          -0.3183    8.5815    6.8608 C.ar    1  UNL1       -0.0612
      7 C          -0.1853    7.3016    6.3536 C.ar    1  UNL1       -0.0538
      8 C          -0.4679    4.4110    5.5196 C.ar    1  UNL1       -0.0189
      9 C          -1.5256    4.4974    6.4237 C.ar    1  UNL1       -0.0538
     10 C          -2.7992    4.1302    6.0342 C.ar    1  UNL1       -0.0612
     11 C          -3.0317    3.6803    4.7426 C.ar    1  UNL1       -0.0617
     12 C          -1.9851    3.5981    3.8409 C.ar    1  UNL1       -0.0612
     13 C          -0.7085    3.9616    4.2325 C.ar    1  UNL1       -0.0538
     14 C           1.3504    3.8908    7.6055 C.3     1  UNL1       -0.0199
     15 C           2.5709    2.9838    7.6384 C.3     1  UNL1       -0.0199
     16 P           3.9659    3.6942    6.6688 P.3     1  UNL1       -0.0435
     17 C           4.8113    4.7906    7.8580 C.ar    1  UNL1       -0.0189
     18 C           6.0335    5.2987    7.4249 C.ar    1  UNL1       -0.0538
     19 C           6.7582    6.1680    8.2149 C.ar    1  UNL1       -0.0612
     20 C           6.2673    6.5437    9.4548 C.ar    1  UNL1       -0.0617
     21 C           5.0575    6.0382    9.8987 C.ar    1  UNL1       -0.0612
     22 C           4.3288    5.1664    9.1076 C.ar    1  UNL1       -0.0538
     23 C           5.1037    2.2746    6.7608 C.ar    1  UNL1       -0.0189
     24 C           5.2337    1.4654    5.6420 C.ar    1  UNL1       -0.0538
     25 C           6.0610    0.3564    5.6699 C.ar    1  UNL1       -0.0612
     26 C           6.7689    0.0537    6.8206 C.ar    1  UNL1       -0.0617
     27 C           6.6423    0.8584    7.9423 C.ar    1  UNL1       -0.0612
     28 C           5.8122    1.9637    7.9177 C.ar    1  UNL1       -0.0538
     29 H           2.7794    6.4919    7.7629 H       1  UNL1        0.0624
     30 H           2.5389    8.7609    8.6539 H       1  UNL1        0.0618
     31 H           0.5443   10.1102    8.0872 H       1  UNL1        0.0618
     32 H          -1.1835    9.1727    6.5947 H       1  UNL1        0.0618
     33 H          -0.9361    6.9116    5.6797 H       1  UNL1        0.0624
     34 H          -1.3505    4.8601    7.4284 H       1  UNL1        0.0624
     35 H          -3.6165    4.1944    6.7384 H       1  UNL1        0.0618
     36 H          -4.0296    3.3929    4.4448 H       1  UNL1        0.0618
     37 H          -2.1596    3.2473    2.8339 H       1  UNL1        0.0618
     38 H           0.1307    3.8799    3.5560 H       1  UNL1        0.0624
     39 H           1.3836    4.6178    8.4241 H       1  UNL1        0.0323
     40 H           0.4392    3.2955    7.7157 H       1  UNL1        0.0323
     41 H           2.8873    2.7504    8.6616 H       1  UNL1        0.0323
     42 H           2.3533    2.0409    7.1261 H       1  UNL1        0.0323
     43 H           6.4096    4.9991    6.4566 H       1  UNL1        0.0624
     44 H           7.7012    6.5560    7.8593 H       1  UNL1        0.0618
     45 H           6.8258    7.2292   10.0752 H       1  UNL1        0.0618
     46 H           4.6734    6.3255   10.8675 H       1  UNL1        0.0618
     47 H           3.3884    4.7835    9.4787 H       1  UNL1        0.0624
     48 H           4.6731    1.7259    4.7539 H       1  UNL1        0.0624
     49 H           6.1568   -0.2672    4.7920 H       1  UNL1        0.0618
     50 H           7.4205   -0.8076    6.8458 H       1  UNL1        0.0618
     51 H           7.1950    0.6223    8.8404 H       1  UNL1        0.0618
     52 H           5.7212    2.5908    8.7943 H       1  UNL1        0.0624
@<TRIPOS>BOND
     1    37    12    1
     2    38    13    1
     3    12    13   ar
     4    12    11   ar
     5    13     8   ar
     6    36    11    1
     7    11    10   ar
     8    48    24    1
     9    49    25    1
    10     8     1    1
    11     8     9   ar
    12    24    25   ar
    13    24    23   ar
    14    25    26   ar
    15    33     7    1
    16     1     2    1
    17     1    14    1
    18    10     9   ar
    19    10    35    1
    20     7     2   ar
    21     7     6   ar
    22     9    34    1
    23    43    18    1
    24    32     6    1
    25    16    23    1
    26    16    15    1
    27    16    17    1
    28     2     3   ar
    29    23    28   ar
    30    26    50    1
    31    26    27   ar
    32     6     5   ar
    33    42    15    1
    34    18    17   ar
    35    18    19   ar
    36     3    29    1
    37     3     4   ar
    38    14    15    1
    39    14    40    1
    40    14    39    1
    41    15    41    1
    42     5     4   ar
    43     5    31    1
    44    17    22   ar
    45    44    19    1
    46    28    27   ar
    47    28    52    1
    48    27    51    1
    49     4    30    1
    50    19    20   ar
    51    22    47    1
    52    22    21   ar
    53    20    21   ar
    54    20    45    1
    55    21    46    1
