@<TRIPOS>MOLECULE
1,2
 52 55 0 0 0
SMALL
GASTEIGER

@<TRIPOS>ATOM
      1 P           5.7854    7.0714   17.7890 P.3     1  UNL1       -0.0435
      2 P           8.5836    6.6524   17.2556 P.3     1  UNL1       -0.0435
      3 C           6.5035    8.4609   16.7730 C.3     1  UNL1       -0.0199
      4 H           6.0122    8.3810   15.7995 H       1  UNL1        0.0323
      5 H           6.2286    9.4280   17.2027 H       1  UNL1        0.0323
      6 C           8.0190    8.3169   16.6134 C.3     1  UNL1       -0.0199
      7 H           8.5540    9.0908   17.1722 H       1  UNL1        0.0323
      8 H           8.3021    8.4154   15.5642 H       1  UNL1        0.0323
      9 C           4.0297    7.1898   17.3014 C.ar    1  UNL1       -0.0189
     10 C           3.4207    6.0769   16.7394 C.ar    1  UNL1       -0.0538
     11 H           4.0132    5.1850   16.6018 H       1  UNL1        0.0624
     12 C           2.0905    6.1244   16.3621 C.ar    1  UNL1       -0.0612
     13 H           1.6206    5.2565   15.9222 H       1  UNL1        0.0618
     14 C           1.3616    7.2870   16.5498 C.ar    1  UNL1       -0.0617
     15 H           0.3227    7.3276   16.2567 H       1  UNL1        0.0618
     16 C           1.9630    8.3994   17.1183 C.ar    1  UNL1       -0.0612
     17 H           1.3908    9.3037   17.2686 H       1  UNL1        0.0618
     18 C           3.2919    8.3531   17.4964 C.ar    1  UNL1       -0.0538
     19 H           3.7606    9.2149   17.9520 H       1  UNL1        0.0624
     20 C           5.6415    7.7870   19.4602 C.ar    1  UNL1       -0.0189
     21 C           4.7403    7.1623   20.3197 C.ar    1  UNL1       -0.0538
     22 H           4.1192    6.3658   19.9301 H       1  UNL1        0.0624
     23 C           4.6386    7.5561   21.6392 C.ar    1  UNL1       -0.0612
     24 H           3.9330    7.0701   22.2978 H       1  UNL1        0.0618
     25 C           5.4478    8.5747   22.1196 C.ar    1  UNL1       -0.0617
     26 H           5.3717    8.8839   23.1519 H       1  UNL1        0.0618
     27 C           6.3566    9.1908   21.2762 C.ar    1  UNL1       -0.0612
     28 H           6.9939    9.9789   21.6513 H       1  UNL1        0.0618
     29 C           6.4592    8.7966   19.9537 C.ar    1  UNL1       -0.0538
     30 H           7.1852    9.2712   19.3097 H       1  UNL1        0.0624
     31 C           9.5202    7.2121   18.7230 C.ar    1  UNL1       -0.0189
     32 C           8.9462    7.0165   19.9716 C.ar    1  UNL1       -0.0538
     33 H           7.9978    6.5000   20.0252 H       1  UNL1        0.0624
     34 C           9.5792    7.4764   21.1122 C.ar    1  UNL1       -0.0612
     35 H           9.1250    7.3228   22.0805 H       1  UNL1        0.0618
     36 C          10.7929    8.1354   21.0086 C.ar    1  UNL1       -0.0617
     37 H          11.2922    8.4936   21.8972 H       1  UNL1        0.0618
     38 C          11.3695    8.3373   19.7639 C.ar    1  UNL1       -0.0612
     39 H          12.3159    8.8530   19.6850 H       1  UNL1        0.0618
     40 C          10.7355    7.8822   18.6225 C.ar    1  UNL1       -0.0538
     41 H          11.1819    8.0380   17.6490 H       1  UNL1        0.0624
     42 C           9.9472    6.1244   16.1770 C.ar    1  UNL1       -0.0189
     43 C          10.0412    6.3832   14.8148 C.ar    1  UNL1       -0.0538
     44 H           9.3559    7.0679   14.3364 H       1  UNL1        0.0624
     45 C          11.0192    5.7673   14.0528 C.ar    1  UNL1       -0.0612
     46 H          11.0856    5.9782   12.9951 H       1  UNL1        0.0618
     47 C          11.9040    4.8776   14.6364 C.ar    1  UNL1       -0.0617
     48 H          12.6616    4.3951   14.0368 H       1  UNL1        0.0618
     49 C          11.8097    4.6013   15.9923 C.ar    1  UNL1       -0.0612
     50 H          12.4938    3.9014   16.4504 H       1  UNL1        0.0618
     51 C          10.8342    5.2140   16.7518 C.ar    1  UNL1       -0.0538
     52 H          10.7439    4.9988   17.8088 H       1  UNL1        0.0624
@<TRIPOS>BOND
     1    46    45    1
     2    48    47    1
     3    45    47   ar
     4    45    43   ar
     5    44    43    1
     6    47    49   ar
     7    43    42   ar
     8     8     6    1
     9     4     3    1
    10    13    12    1
    11    49    50    1
    12    49    51   ar
    13    42    51   ar
    14    42     2    1
    15    15    14    1
    16    12    14   ar
    17    12    10   ar
    18    14    16   ar
    19    11    10    1
    20     6     3    1
    21     6     7    1
    22     6     2    1
    23    10     9   ar
    24    51    52    1
    25     3     5    1
    26     3     1    1
    27    16    17    1
    28    16    18   ar
    29     2    31    1
    30     9    18   ar
    31     9     1    1
    32    18    19    1
    33    41    40    1
    34     1    20    1
    35    40    31   ar
    36    40    38   ar
    37    31    32   ar
    38    30    29    1
    39    20    29   ar
    40    20    21   ar
    41    39    38    1
    42    38    36   ar
    43    22    21    1
    44    29    27   ar
    45    32    33    1
    46    32    34   ar
    47    21    23   ar
    48    36    34   ar
    49    36    37    1
    50    34    35    1
    51    27    28    1
    52    27    25   ar
    53    23    25   ar
    54    23    24    1
    55    25    26    1
