@<TRIPOS>MOLECULE
1,2
 24 23 0 0 0
SMALL
GASTEIGER

@<TRIPOS>ATOM
      1 P           0.8115    1.6547    1.3637 P.3     1  UNL1       -0.1119
      2 P          -1.4935   -0.3342    1.7033 P.3     1  UNL1       -0.1119
      3 C          -0.3078    1.8613    2.8295 C.3     1  UNL1       -0.0288
      4 H          -1.1336    2.5032    2.5041 H       1  UNL1        0.0316
      5 H           0.2212    2.3534    3.6529 H       1  UNL1        0.0316
      6 C          -0.8370    0.4950    3.2243 C.3     1  UNL1       -0.0288
      7 H          -0.0190   -0.1378    3.5859 H       1  UNL1        0.0316
      8 H          -1.6101    0.5590    3.9979 H       1  UNL1        0.0316
      9 C          -1.8897   -1.9728    2.4341 C.3     1  UNL1       -0.0445
     10 H          -2.5715   -2.5070    1.7729 H       1  UNL1        0.0277
     11 H          -0.9596   -2.5345    2.5199 H       1  UNL1        0.0277
     12 H          -2.3520   -1.8562    3.4151 H       1  UNL1        0.0277
     13 C          -3.1762    0.3977    1.6080 C.3     1  UNL1       -0.0445
     14 H          -3.6833    0.3627    2.5730 H       1  UNL1        0.0277
     15 H          -3.0873    1.4248    1.2560 H       1  UNL1        0.0277
     16 H          -3.7497   -0.1610    0.8686 H       1  UNL1        0.0277
     17 C           0.9467    3.4202    0.8728 C.3     1  UNL1       -0.0445
     18 H           1.8140    3.5513    0.2275 H       1  UNL1        0.0277
     19 H           0.0489    3.6817    0.3131 H       1  UNL1        0.0277
     20 H           1.0452    4.0580    1.7522 H       1  UNL1        0.0277
     21 C           2.4284    1.4220    2.2048 C.3     1  UNL1       -0.0445
     22 H           2.6082    2.2011    2.9463 H       1  UNL1        0.0277
     23 H           2.4328    0.4373    2.6714 H       1  UNL1        0.0277
     24 H           3.2136    1.4433    1.4488 H       1  UNL1        0.0277
@<TRIPOS>BOND
     1    18    17    1
     2    19    17    1
     3    16    13    1
     4    17     1    1
     5    17    20    1
     6    15    13    1
     7     1    21    1
     8     1     3    1
     9    24    21    1
    10    13     2    1
    11    13    14    1
    12     2     9    1
    13     2     6    1
    14    10     9    1
    15    21    23    1
    16    21    22    1
    17     9    11    1
    18     9    12    1
    19     4     3    1
    20     3     6    1
    21     3     5    1
    22     6     7    1
    23     6     8    1
