@<TRIPOS>MOLECULE
1,2
 24 23 0 0 0
SMALL
GASTEIGER

@<TRIPOS>ATOM
      1 P          -0.8116   -1.6547   -1.3635 P.3     1  UNL1       -0.1119
      2 P           1.4937    0.3344   -1.7033 P.3     1  UNL1       -0.1119
      3 C           0.3078   -1.8613   -2.8294 C.3     1  UNL1       -0.0288
      4 H           1.1336   -2.5031   -2.5040 H       1  UNL1        0.0316
      5 H          -0.2212   -2.3534   -3.6528 H       1  UNL1        0.0316
      6 C           0.8369   -0.4950   -3.2243 C.3     1  UNL1       -0.0288
      7 H           0.0190    0.1378   -3.5858 H       1  UNL1        0.0316
      8 H           1.6101   -0.5591   -3.9979 H       1  UNL1        0.0316
      9 C           1.8898    1.9729   -2.4342 C.3     1  UNL1       -0.0445
     10 H           2.5715    2.5072   -1.7730 H       1  UNL1        0.0277
     11 H           0.9597    2.5346   -2.5199 H       1  UNL1        0.0277
     12 H           2.3521    1.8563   -3.4152 H       1  UNL1        0.0277
     13 C           3.1763   -0.3977   -1.6081 C.3     1  UNL1       -0.0445
     14 H           3.6834   -0.3628   -2.5730 H       1  UNL1        0.0277
     15 H           3.0873   -1.4249   -1.2561 H       1  UNL1        0.0277
     16 H           3.7498    0.1610   -0.8687 H       1  UNL1        0.0277
     17 C          -0.9467   -3.4202   -0.8728 C.3     1  UNL1       -0.0445
     18 H          -1.8140   -3.5513   -0.2276 H       1  UNL1        0.0277
     19 H          -0.0489   -3.6817   -0.3131 H       1  UNL1        0.0277
     20 H          -1.0451   -4.0580   -1.7522 H       1  UNL1        0.0277
     21 C          -2.4285   -1.4219   -2.2048 C.3     1  UNL1       -0.0445
     22 H          -2.6082   -2.2011   -2.9463 H       1  UNL1        0.0277
     23 H          -2.4328   -0.4372   -2.6714 H       1  UNL1        0.0277
     24 H          -3.2136   -1.4433   -1.4488 H       1  UNL1        0.0277
@<TRIPOS>BOND
     1     8     6    1
     2     5     3    1
     3     7     6    1
     4    12     9    1
     5     6     3    1
     6     6     2    1
     7    22    21    1
     8     3     4    1
     9     3     1    1
    10    23    21    1
    11    14    13    1
    12    11     9    1
    13     9    10    1
    14     9     2    1
    15    21    24    1
    16    21     1    1
    17    20    17    1
    18     2    13    1
    19    13    15    1
    20    13    16    1
    21     1    17    1
    22    17    19    1
    23    17    18    1
