@<TRIPOS>MOLECULE
1,27
 49 52 0 0 0
SMALL
GASTEIGER

@<TRIPOS>ATOM
      1 P          -0.2650    8.6420    7.8198 P.3     1  UNL1       -0.0389
      2 C          -0.8234    7.0478    7.1509 C.ar    1  UNL1       -0.0186
      3 C          -0.8179    5.8773    7.9028 C.ar    1  UNL1       -0.0538
      4 H          -0.5519    5.9097    8.9513 H       1  UNL1        0.0624
      5 C          -1.1551    4.6765    7.3046 C.ar    1  UNL1       -0.0612
      6 H          -1.1570    3.7683    7.8906 H       1  UNL1        0.0618
      7 C          -1.4820    4.6344    5.9590 C.ar    1  UNL1       -0.0617
      8 H          -1.7393    3.6926    5.4965 H       1  UNL1        0.0618
      9 C          -1.4670    5.7963    5.2033 C.ar    1  UNL1       -0.0612
     10 H          -1.7063    5.7632    4.1504 H       1  UNL1        0.0618
     11 C          -1.1321    6.9985    5.7944 C.ar    1  UNL1       -0.0538
     12 H          -1.0899    7.9066    5.2052 H       1  UNL1        0.0624
     13 C          -0.4468    8.4171    9.6101 C.ar    1  UNL1       -0.0186
     14 C           0.7021    8.4381   10.3896 C.ar    1  UNL1       -0.0538
     15 H           1.6599    8.5979    9.9071 H       1  UNL1        0.0624
     16 C           0.6131    8.2820   11.7607 C.ar    1  UNL1       -0.0612
     17 H           1.5079    8.3108   12.3653 H       1  UNL1        0.0618
     18 C          -0.6270    8.1049   12.3533 C.ar    1  UNL1       -0.0617
     19 H          -0.7018    7.9913   13.4251 H       1  UNL1        0.0618
     20 C          -1.7758    8.0788   11.5763 C.ar    1  UNL1       -0.0612
     21 H          -2.7400    7.9396   12.0441 H       1  UNL1        0.0618
     22 C          -1.6906    8.2329   10.2051 C.ar    1  UNL1       -0.0538
     23 H          -2.5815    8.2071    9.5913 H       1  UNL1        0.0624
     24 C          -1.6515    9.7972    7.3328 C.3     1  UNL1        0.0041
     25 H          -2.5317    9.3170    6.8930 H       1  UNL1        0.0373
     26 H          -1.9364   10.4068    8.1965 H       1  UNL1        0.0373
     27 P          -0.6162   10.7849    6.1272 P.3     1  UNL1       -0.0389
     28 C          -1.4740   10.4569    4.5509 C.ar    1  UNL1       -0.0186
     29 C          -0.7861    9.8812    3.4900 C.ar    1  UNL1       -0.0538
     30 H           0.2592    9.6258    3.6046 H       1  UNL1        0.0624
     31 C          -1.4470    9.6207    2.3014 C.ar    1  UNL1       -0.0612
     32 H          -0.9102    9.1726    1.4782 H       1  UNL1        0.0618
     33 C          -2.7897    9.9317    2.1720 C.ar    1  UNL1       -0.0617
     34 H          -3.3054    9.7285    1.2446 H       1  UNL1        0.0618
     35 C          -3.4787   10.5039    3.2320 C.ar    1  UNL1       -0.0612
     36 H          -4.5271   10.7447    3.1282 H       1  UNL1        0.0618
     37 C          -2.8254   10.7677    4.4198 C.ar    1  UNL1       -0.0538
     38 H          -3.3516   11.2233    5.2494 H       1  UNL1        0.0624
     39 C          -1.0606   12.5324    6.3920 C.ar    1  UNL1       -0.0186
     40 C          -1.1751   13.0462    7.6812 C.ar    1  UNL1       -0.0538
     41 H          -1.0860   12.3889    8.5339 H       1  UNL1        0.0624
     42 C          -1.3646   14.4018    7.8764 C.ar    1  UNL1       -0.0612
     43 H          -1.4484   14.7892    8.8814 H       1  UNL1        0.0618
     44 C          -1.4341   15.2597    6.7909 C.ar    1  UNL1       -0.0617
     45 H          -1.5772   16.3192    6.9455 H       1  UNL1        0.0618
     46 C          -1.3150   14.7565    5.5059 C.ar    1  UNL1       -0.0612
     47 H          -1.3659   15.4222    4.6563 H       1  UNL1        0.0618
     48 C          -1.1242   13.4020    5.3056 C.ar    1  UNL1       -0.0538
     49 H          -1.0326   13.0140    4.2995 H       1  UNL1        0.0624
@<TRIPOS>BOND
     1    34    33    1
     2    32    31    1
     3    33    31   ar
     4    33    35   ar
     5    31    29   ar
     6    36    35    1
     7    35    37   ar
     8    29    30    1
     9    29    28   ar
    10    10     9    1
    11    49    48    1
    12    37    28   ar
    13    37    38    1
    14    28    27    1
    15    47    46    1
    16     9    11   ar
    17     9     7   ar
    18    12    11    1
    19    48    46   ar
    20    48    39   ar
    21     8     7    1
    22    46    44   ar
    23    11     2   ar
    24     7     5   ar
    25    27    39    1
    26    27    24    1
    27    39    40   ar
    28    44    45    1
    29    44    42   ar
    30    25    24    1
    31     2     1    1
    32     2     3   ar
    33     5     6    1
    34     5     3   ar
    35    24     1    1
    36    24    26    1
    37    40    42   ar
    38    40    41    1
    39     1    13    1
    40    42    43    1
    41     3     4    1
    42    23    22    1
    43    13    22   ar
    44    13    14   ar
    45    15    14    1
    46    22    20   ar
    47    14    16   ar
    48    20    21    1
    49    20    18   ar
    50    16    18   ar
    51    16    17    1
    52    18    19    1
