@<TRIPOS>MOLECULE
1,27
 49 52 0 0 0
SMALL
GASTEIGER

@<TRIPOS>ATOM
      1 P           3.0234   11.1094    5.8509 P.3     1  UNL1       -0.0389
      2 C           3.1254   11.2750    4.0440 C.ar    1  UNL1       -0.0186
      3 C           1.9943   11.8279    3.4524 C.ar    1  UNL1       -0.0538
      4 H           1.1595   12.1020    4.0913 H       1  UNL1        0.0624
      5 C           1.9364   12.0024    2.0844 C.ar    1  UNL1       -0.0612
      6 H           1.0507   12.4194    1.6264 H       1  UNL1        0.0618
      7 C           3.0166   11.6276    1.3005 C.ar    1  UNL1       -0.0617
      8 H           2.9747   11.7531    0.2283 H       1  UNL1        0.0618
      9 C           4.1480   11.0867    1.8879 C.ar    1  UNL1       -0.0612
     10 H           4.9875   10.7954    1.2727 H       1  UNL1        0.0618
     11 C           4.2099   10.9100    3.2595 C.ar    1  UNL1       -0.0538
     12 H           5.0950   10.4809    3.7077 H       1  UNL1        0.0624
     13 C           3.5469   12.7949    6.3019 C.ar    1  UNL1       -0.0186
     14 C           4.8271   13.2673    6.0343 C.ar    1  UNL1       -0.0538
     15 H           5.5579   12.6158    5.5729 H       1  UNL1        0.0624
     16 C           5.1572   14.5700    6.3567 C.ar    1  UNL1       -0.0612
     17 H           6.1536   14.9384    6.1584 H       1  UNL1        0.0618
     18 C           4.2105   15.4070    6.9285 C.ar    1  UNL1       -0.0617
     19 H           4.4751   16.4244    7.1772 H       1  UNL1        0.0618
     20 C           2.9294   14.9429    7.1775 C.ar    1  UNL1       -0.0612
     21 H           2.1885   15.5965    7.6152 H       1  UNL1        0.0618
     22 C           2.5962   13.6370    6.8657 C.ar    1  UNL1       -0.0538
     23 H           1.6075   13.2482    7.0750 H       1  UNL1        0.0624
     24 C           4.4084    9.9912    6.3958 C.3     1  UNL1        0.0041
     25 H           5.2983   10.4869    6.7953 H       1  UNL1        0.0373
     26 H           4.6645    9.2881    5.5953 H       1  UNL1        0.0373
     27 P           3.3602    9.1003    7.6616 P.3     1  UNL1       -0.0389
     28 C           3.8672    7.3629    7.5829 C.ar    1  UNL1       -0.0186
     29 C           5.2045    6.9977    7.4708 C.ar    1  UNL1       -0.0538
     30 H           5.9700    7.7624    7.4390 H       1  UNL1        0.0624
     31 C           5.5409    5.6588    7.4044 C.ar    1  UNL1       -0.0612
     32 H           6.5776    5.3679    7.3119 H       1  UNL1        0.0618
     33 C           4.5511    4.6884    7.4506 C.ar    1  UNL1       -0.0617
     34 H           4.8214    3.6442    7.3899 H       1  UNL1        0.0618
     35 C           3.2197    5.0522    7.5693 C.ar    1  UNL1       -0.0612
     36 H           2.4480    4.2968    7.5999 H       1  UNL1        0.0618
     37 C           2.8784    6.3899    7.6372 C.ar    1  UNL1       -0.0538
     38 H           1.8401    6.6968    7.7139 H       1  UNL1        0.0624
     39 C           4.0789    9.6729    9.2272 C.ar    1  UNL1       -0.0186
     40 C           4.2355   11.0437    9.4120 C.ar    1  UNL1       -0.0538
     41 H           4.0106   11.7200    8.5962 H       1  UNL1        0.0624
     42 C           4.6562   11.5358   10.6320 C.ar    1  UNL1       -0.0612
     43 H           4.7751   12.6001   10.7720 H       1  UNL1        0.0618
     44 C           4.9079   10.6653   11.6805 C.ar    1  UNL1       -0.0617
     45 H           5.2245   11.0520   12.6380 H       1  UNL1        0.0618
     46 C           4.7462    9.3013   11.5034 C.ar    1  UNL1       -0.0612
     47 H           4.9421    8.6222   12.3210 H       1  UNL1        0.0618
     48 C           4.3269    8.8024   10.2830 C.ar    1  UNL1       -0.0538
     49 H           4.1920    7.7370   10.1467 H       1  UNL1        0.0624
@<TRIPOS>BOND
     1     8     7    1
     2    10     9    1
     3     7     9   ar
     4     7     5   ar
     5     6     5    1
     6     9    11   ar
     7     5     3   ar
     8    11    12    1
     9    11     2   ar
    10     3     2   ar
    11     3     4    1
    12     2     1    1
    13    15    14    1
    14    26    24    1
    15     1    13    1
    16     1    24    1
    17    14    13   ar
    18    14    16   ar
    19    17    16    1
    20    13    22   ar
    21    16    18   ar
    22    24    25    1
    23    24    27    1
    24    22    23    1
    25    22    20   ar
    26    18    19    1
    27    18    20   ar
    28    20    21    1
    29    32    31    1
    30    34    33    1
    31    31    33   ar
    32    31    29   ar
    33    30    29    1
    34    33    35   ar
    35    29    28   ar
    36    35    36    1
    37    35    37   ar
    38    28    37   ar
    39    28    27    1
    40    37    38    1
    41    27    39    1
    42    41    40    1
    43    39    40   ar
    44    39    48   ar
    45    40    42   ar
    46    49    48    1
    47    48    46   ar
    48    42    43    1
    49    42    44   ar
    50    46    44   ar
    51    46    47    1
    52    44    45    1
