@<TRIPOS>MOLECULE
1,2
 52 55 0 0 0
SMALL
GASTEIGER

@<TRIPOS>ATOM
      1 P          63.3190    6.0269    3.2830 P.3     1  UNL1       -0.0435
      2 P          63.0452    2.9804    3.0146 P.3     1  UNL1       -0.0435
      3 C          59.9456    8.0101    2.0735 C.ar    1  UNL1       -0.0612
      4 H          59.2507    7.9467    1.2488 H       1  UNL1        0.0618
      5 C          62.5679    0.3113    2.3217 C.ar    1  UNL1       -0.0538
      6 H          63.5872    0.1340    2.6361 H       1  UNL1        0.0624
      7 C          61.0378    7.1597    2.1128 C.ar    1  UNL1       -0.0538
      8 H          61.1939    6.4362    1.3244 H       1  UNL1        0.0624
      9 C          62.0198    1.5868    2.4362 C.ar    1  UNL1       -0.0189
     10 C          61.8449    3.9153    4.0600 C.3     1  UNL1       -0.0199
     11 H          61.0903    4.3456    3.3902 H       1  UNL1        0.0323
     12 H          61.3426    3.2668    4.7840 H       1  UNL1        0.0323
     13 C          61.8150   -0.7263    1.8032 C.ar    1  UNL1       -0.0612
     14 H          62.2484   -1.7125    1.7201 H       1  UNL1        0.0618
     15 C          61.9394    7.2252    3.1659 C.ar    1  UNL1       -0.0189
     16 C          62.6459    5.0388    4.7003 C.3     1  UNL1       -0.0199
     17 H          63.4765    4.6248    5.2805 H       1  UNL1        0.0323
     18 H          62.0329    5.6741    5.3480 H       1  UNL1        0.0323
     19 C          60.7088    1.8038    2.0174 C.ar    1  UNL1       -0.0538
     20 H          60.2800    2.7919    2.0740 H       1  UNL1        0.0624
     21 C          66.1109    0.9086    4.6774 C.ar    1  UNL1       -0.0612
     22 H          67.0509    0.5226    4.3110 H       1  UNL1        0.0618
     23 C          65.2747    1.6019    3.8229 C.ar    1  UNL1       -0.0538
     24 H          65.5633    1.7656    2.7953 H       1  UNL1        0.0624
     25 C          64.0596    2.1150    4.2687 C.ar    1  UNL1       -0.0189
     26 C          61.7278    8.1468    4.1909 C.ar    1  UNL1       -0.0538
     27 H          62.4190    8.1967    5.0221 H       1  UNL1        0.0624
     28 C          59.7505    8.9355    3.0827 C.ar    1  UNL1       -0.0617
     29 H          58.9029    9.6044    3.0510 H       1  UNL1        0.0618
     30 C          64.6088    7.0426    4.0716 C.ar    1  UNL1       -0.0189
     31 C          59.9623    0.7628    1.4974 C.ar    1  UNL1       -0.0612
     32 H          58.9487    0.9443    1.1704 H       1  UNL1        0.0618
     33 C          66.5677    7.2256    5.4587 C.ar    1  UNL1       -0.0612
     34 H          67.2672    6.7733    6.1469 H       1  UNL1        0.0618
     35 C          60.6438    9.0009    4.1421 C.ar    1  UNL1       -0.0612
     36 H          60.4901    9.7188    4.9351 H       1  UNL1        0.0618
     37 C          65.7459    0.7277    6.0012 C.ar    1  UNL1       -0.0617
     38 H          66.4020    0.2033    6.6796 H       1  UNL1        0.0618
     39 C          63.6931    1.9153    5.5961 C.ar    1  UNL1       -0.0538
     40 H          62.7526    2.2846    5.9775 H       1  UNL1        0.0624
     41 C          65.5149    6.4774    4.9647 C.ar    1  UNL1       -0.0538
     42 H          65.4098    5.4462    5.2667 H       1  UNL1        0.0624
     43 C          60.5122   -0.5038    1.3883 C.ar    1  UNL1       -0.0617
     44 H          59.9284   -1.3152    0.9791 H       1  UNL1        0.0618
     45 C          64.7893    8.3646    3.6732 C.ar    1  UNL1       -0.0538
     46 H          64.0922    8.8080    2.9750 H       1  UNL1        0.0624
     47 C          65.8368    9.1130    4.1748 C.ar    1  UNL1       -0.0612
     48 H          65.9617   10.1397    3.8621 H       1  UNL1        0.0618
     49 C          64.5375    1.2313    6.4538 C.ar    1  UNL1       -0.0612
     50 H          64.2480    1.0906    7.4854 H       1  UNL1        0.0618
     51 C          66.7307    8.5437    5.0668 C.ar    1  UNL1       -0.0617
     52 H          67.5541    9.1259    5.4537 H       1  UNL1        0.0618
@<TRIPOS>BOND
     1    44    43    1
     2    32    31    1
     3     4     3    1
     4     8     7    1
     5    43    31   ar
     6    43    13   ar
     7    31    19   ar
     8    14    13    1
     9    13     5   ar
    10    19    20    1
    11    19     9   ar
    12     3     7   ar
    13     3    28   ar
    14     7    15   ar
    15     5     9   ar
    16     5     6    1
    17     9     2    1
    18    24    23    1
    19    46    45    1
    20     2    10    1
    21     2    25    1
    22    29    28    1
    23    28    35   ar
    24    15     1    1
    25    15    26   ar
    26     1    30    1
    27     1    16    1
    28    11    10    1
    29    45    30   ar
    30    45    47   ar
    31    23    25   ar
    32    23    21   ar
    33    48    47    1
    34    10    16    1
    35    10    12    1
    36    30    41   ar
    37    35    26   ar
    38    35    36    1
    39    47    51   ar
    40    26    27    1
    41    25    39   ar
    42    22    21    1
    43    21    37   ar
    44    16    17    1
    45    16    18    1
    46    41    42    1
    47    41    33   ar
    48    51    52    1
    49    51    33   ar
    50    33    34    1
    51    39    40    1
    52    39    49   ar
    53    37    49   ar
    54    37    38    1
    55    49    50    1
