@<TRIPOS>MOLECULE
1,2
 52 55 0 0 0
SMALL
GASTEIGER

@<TRIPOS>ATOM
      1 P          64.9654    3.2278    0.0441 P.3     1  UNL1       -0.0435
      2 P          64.5751    6.2676    0.2080 P.3     1  UNL1       -0.0435
      3 C          65.5515    0.5074    0.3504 C.ar    1  UNL1       -0.0538
      4 H          64.5424    0.3345    0.0023 H       1  UNL1        0.0624
      5 C          63.9757    2.5083   -1.3177 C.ar    1  UNL1       -0.0189
      6 C          62.7818    1.8957   -0.9466 C.ar    1  UNL1       -0.0538
      7 H          62.4942    1.9036    0.0938 H       1  UNL1        0.0624
      8 C          64.3417    2.5082   -2.6599 C.ar    1  UNL1       -0.0538
      9 H          65.2665    2.9599   -2.9871 H       1  UNL1        0.0624
     10 C          67.3430    2.0177    0.8861 C.ar    1  UNL1       -0.0538
     11 H          67.7296    3.0211    0.9755 H       1  UNL1        0.0624
     12 C          65.2758    5.5153   -1.3361 C.3     1  UNL1       -0.0199
     13 H          64.4569    5.1564   -1.9674 H       1  UNL1        0.0323
     14 H          65.8602    6.2583   -1.8887 H       1  UNL1        0.0323
     15 C          66.1228    4.3436   -0.8634 C.3     1  UNL1       -0.0199
     16 H          66.8672    4.7031   -0.1425 H       1  UNL1        0.0323
     17 H          66.6428    3.8229   -1.6729 H       1  UNL1        0.0323
     18 C          62.3307    1.3152   -3.2242 C.ar    1  UNL1       -0.0617
     19 H          61.6926    0.8616   -3.9683 H       1  UNL1        0.0618
     20 C          63.0203    8.5843    0.1368 C.ar    1  UNL1       -0.0538
     21 H          63.7088    8.9595    0.8817 H       1  UNL1        0.0624
     22 C          61.2627    7.6215   -1.7684 C.ar    1  UNL1       -0.0612
     23 H          60.5709    7.2364   -2.5036 H       1  UNL1        0.0618
     24 C          62.3469    6.8547   -1.3833 C.ar    1  UNL1       -0.0538
     25 H          62.4847    5.8746   -1.8146 H       1  UNL1        0.0624
     26 C          63.5182    1.9187   -3.6038 C.ar    1  UNL1       -0.0612
     27 H          63.8088    1.9301   -4.6447 H       1  UNL1        0.0618
     28 C          61.9652    1.2993   -1.8885 C.ar    1  UNL1       -0.0612
     29 H          61.0417    0.8329   -1.5782 H       1  UNL1        0.0618
     30 C          66.8122    7.3216    1.5285 C.ar    1  UNL1       -0.0538
     31 H          66.6821    6.4967    2.2151 H       1  UNL1        0.0624
     32 C          63.2429    7.3326   -0.4309 C.ar    1  UNL1       -0.0189
     33 C          68.0338    9.2544    0.8059 C.ar    1  UNL1       -0.0617
     34 H          68.8562    9.9438    0.9291 H       1  UNL1        0.0618
     35 C          61.9410    9.3524   -0.2562 C.ar    1  UNL1       -0.0612
     36 H          61.7834   10.3246    0.1880 H       1  UNL1        0.0618
     37 C          66.0871    8.5459   -0.4059 C.ar    1  UNL1       -0.0538
     38 H          65.3940    8.6796   -1.2263 H       1  UNL1        0.0624
     39 C          67.8722    8.1989    1.6848 C.ar    1  UNL1       -0.0612
     40 H          68.5676    8.0545    2.4988 H       1  UNL1        0.0618
     41 C          68.1305    0.9455    1.2628 C.ar    1  UNL1       -0.0612
     42 H          69.1329    1.1207    1.6258 H       1  UNL1        0.0618
     43 C          65.9094    7.4904    0.4880 C.ar    1  UNL1       -0.0189
     44 C          67.1390    9.4251   -0.2405 C.ar    1  UNL1       -0.0612
     45 H          67.2664   10.2459   -0.9318 H       1  UNL1        0.0618
     46 C          66.3451   -0.5610    0.7264 C.ar    1  UNL1       -0.0612
     47 H          65.9536   -1.5661    0.6647 H       1  UNL1        0.0618
     48 C          61.0574    8.8710   -1.2081 C.ar    1  UNL1       -0.0617
     49 H          60.2093    9.4679   -1.5101 H       1  UNL1        0.0618
     50 C          67.6343   -0.3454    1.1847 C.ar    1  UNL1       -0.0617
     51 H          68.2495   -1.1814    1.4832 H       1  UNL1        0.0618
     52 C          66.0453    1.8078    0.4241 C.ar    1  UNL1       -0.0189
@<TRIPOS>BOND
     1    27    26    1
     2    19    18    1
     3    26    18   ar
     4    26     8   ar
     5    18    28   ar
     6     9     8    1
     7     8     5   ar
     8    23    22    1
     9    13    12    1
    10    14    12    1
    11    28    29    1
    12    28     6   ar
    13    25    24    1
    14    22    24   ar
    15    22    48   ar
    16    17    15    1
    17    49    48    1
    18    24    32   ar
    19    12    15    1
    20    12     2    1
    21     5     6   ar
    22     5     1    1
    23    38    37    1
    24    48    35   ar
    25     6     7    1
    26    45    44    1
    27    15    16    1
    28    15     1    1
    29    32    20   ar
    30    32     2    1
    31    37    44   ar
    32    37    43   ar
    33    35    20   ar
    34    35    36    1
    35    44    33   ar
    36     4     3    1
    37     1    52    1
    38    20    21    1
    39     2    43    1
    40     3    52   ar
    41     3    46   ar
    42    52    10   ar
    43    43    30   ar
    44    47    46    1
    45    46    50   ar
    46    33    34    1
    47    33    39   ar
    48    10    11    1
    49    10    41   ar
    50    50    41   ar
    51    50    51    1
    52    41    42    1
    53    30    39   ar
    54    30    31    1
    55    39    40    1
