@<TRIPOS>MOLECULE
1,2
 75 80 0 0 0
SMALL
GASTEIGER

@<TRIPOS>ATOM
      1 P           2.1012   -2.9678   -9.0244 P.3     1  UNL1        0.0000
      2 P           2.3233   -3.7768  -12.2295 P.3     1  UNL1        0.0000
      3 SI         -0.1044   -4.5836  -10.5119 Si      1  UNL1        0.0000
      4 C           0.6973   -4.1323   -8.8234 C.3     1  UNL1        0.0000
      5 H          -0.0218   -3.7291   -8.1071 H       1  UNL1        0.0000
      6 H           1.1398   -5.0252   -8.3743 H       1  UNL1        0.0000
      7 C           0.5316   -3.4672  -11.9286 C.3     1  UNL1        0.0000
      8 H          -0.0301   -3.6275  -12.8498 H       1  UNL1        0.0000
      9 H           0.4392   -2.4165  -11.6454 H       1  UNL1        0.0000
     10 C           2.5912   -2.7547   -7.2729 C.ar    1  UNL1        0.0000
     11 C           3.8601   -3.1583   -6.8768 C.ar    1  UNL1        0.0000
     12 H           4.5363   -3.5678   -7.6203 H       1  UNL1        0.0000
     13 C           4.2504   -3.0285   -5.5556 C.ar    1  UNL1        0.0000
     14 H           5.2370   -3.3452   -5.2506 H       1  UNL1        0.0000
     15 C           3.3763   -2.4882   -4.6273 C.ar    1  UNL1        0.0000
     16 H           3.6803   -2.3832   -3.5962 H       1  UNL1        0.0000
     17 C           2.1127   -2.0743   -5.0204 C.ar    1  UNL1        0.0000
     18 H           1.4348   -1.6459   -4.2962 H       1  UNL1        0.0000
     19 C           1.7180   -2.2050   -6.3382 C.ar    1  UNL1        0.0000
     20 H           0.7362   -1.8712   -6.6473 H       1  UNL1        0.0000
     21 C           1.2798   -1.3527   -9.2645 C.ar    1  UNL1        0.0000
     22 C           2.1437   -0.2617   -9.3512 C.ar    1  UNL1        0.0000
     23 H           3.2098   -0.4301   -9.2608 H       1  UNL1        0.0000
     24 C           1.6495    1.0106   -9.5609 C.ar    1  UNL1        0.0000
     25 H           2.3274    1.8484   -9.6300 H       1  UNL1        0.0000
     26 C           0.2828    1.2067   -9.6922 C.ar    1  UNL1        0.0000
     27 H          -0.1073    2.1990   -9.8639 H       1  UNL1        0.0000
     28 C          -0.5809    0.1283   -9.6047 C.ar    1  UNL1        0.0000
     29 H          -1.6466    0.2773   -9.7049 H       1  UNL1        0.0000
     30 C          -0.0894   -1.1489   -9.3901 C.ar    1  UNL1        0.0000
     31 H          -0.7809   -1.9773   -9.3283 H       1  UNL1        0.0000
     32 C           2.2389   -5.2797  -13.2656 C.ar    1  UNL1        0.0000
     33 C           1.3784   -5.3708  -14.3572 C.ar    1  UNL1        0.0000
     34 H           0.7552   -4.5304  -14.6307 H       1  UNL1        0.0000
     35 C           1.3359   -6.5265  -15.1122 C.ar    1  UNL1        0.0000
     36 H           0.6656   -6.5910  -15.9572 H       1  UNL1        0.0000
     37 C           2.1530   -7.5994  -14.7921 C.ar    1  UNL1        0.0000
     38 H           2.1137   -8.5022  -15.3837 H       1  UNL1        0.0000
     39 C           3.0253   -7.5077  -13.7221 C.ar    1  UNL1        0.0000
     40 H           3.6725   -8.3366  -13.4765 H       1  UNL1        0.0000
     41 C           3.0696   -6.3510  -12.9645 C.ar    1  UNL1        0.0000
     42 H           3.7553   -6.2673  -12.1325 H       1  UNL1        0.0000
     43 C           2.6639   -2.4946  -13.4891 C.ar    1  UNL1        0.0000
     44 C           3.2896   -2.7890  -14.6960 C.ar    1  UNL1        0.0000
     45 H           3.5265   -3.8148  -14.9436 H       1  UNL1        0.0000
     46 C           3.6150   -1.7721  -15.5761 C.ar    1  UNL1        0.0000
     47 H           4.0973   -2.0100  -16.5133 H       1  UNL1        0.0000
     48 C           3.3365   -0.4547  -15.2546 C.ar    1  UNL1        0.0000
     49 H           3.5964    0.3369  -15.9419 H       1  UNL1        0.0000
     50 C           2.7419   -0.1518  -14.0401 C.ar    1  UNL1        0.0000
     51 H           2.5435    0.8763  -13.7740 H       1  UNL1        0.0000
     52 C           2.4156   -1.1639  -13.1589 C.ar    1  UNL1        0.0000
     53 H           1.9828   -0.9177  -12.1967 H       1  UNL1        0.0000
     54 C           0.2004   -6.3930  -10.9857 C.ar    1  UNL1        0.0000
     55 C           1.1834   -7.1837  -10.3995 C.ar    1  UNL1        0.0000
     56 H           1.8081   -6.7808   -9.6173 H       1  UNL1        0.0000
     57 C           1.3875   -8.4890  -10.8093 C.ar    1  UNL1        0.0000
     58 H           2.1609   -9.0807  -10.3421 H       1  UNL1        0.0000
     59 C           0.6092   -9.0295  -11.8172 C.ar    1  UNL1        0.0000
     60 H           0.7692  -10.0476  -12.1409 H       1  UNL1        0.0000
     61 C          -0.3780   -8.2591  -12.4092 C.ar    1  UNL1        0.0000
     62 H          -0.9907   -8.6753  -13.1957 H       1  UNL1        0.0000
     63 C          -0.5790   -6.9571  -11.9943 C.ar    1  UNL1        0.0000
     64 H          -1.3558   -6.3620  -12.4535 H       1  UNL1        0.0000
     65 C          -1.9768   -4.3297  -10.3422 C.ar    1  UNL1        0.0000
     66 C          -2.6679   -3.3017  -10.9755 C.ar    1  UNL1        0.0000
     67 H          -2.1286   -2.5970  -11.5924 H       1  UNL1        0.0000
     68 C          -4.0370   -3.1643  -10.8293 C.ar    1  UNL1        0.0000
     69 H          -4.5546   -2.3580  -11.3292 H       1  UNL1        0.0000
     70 C          -4.7435   -4.0598  -10.0453 C.ar    1  UNL1        0.0000
     71 H          -5.8124   -3.9552   -9.9305 H       1  UNL1        0.0000
     72 C          -4.0727   -5.0927   -9.4110 C.ar    1  UNL1        0.0000
     73 H          -4.6188   -5.7974   -8.8008 H       1  UNL1        0.0000
     74 C          -2.7047   -5.2217   -9.5607 C.ar    1  UNL1        0.0000
     75 H          -2.1842   -6.0315   -9.0706 H       1  UNL1        0.0000
@<TRIPOS>BOND
     1    47    46    1
     2    36    35    1
     3    49    48    1
     4    46    48   ar
     5    46    44   ar
     6    38    37    1
     7    48    50   ar
     8    35    37   ar
     9    35    33   ar
    10    45    44    1
    11    37    39   ar
    12    44    43   ar
    13    34    33    1
    14    33    32   ar
    15    50    51    1
    16    50    52   ar
    17    39    40    1
    18    39    41   ar
    19    43    52   ar
    20    43     2    1
    21    32    41   ar
    22    32     2    1
    23    62    61    1
    24    52    53    1
    25    41    42    1
    26     8     7    1
    27    64    63    1
    28    61    63   ar
    29    61    59   ar
    30     2     7    1
    31    60    59    1
    32    63    54   ar
    33     7     9    1
    34     7     3    1
    35    59    57   ar
    36    67    66    1
    37    69    68    1
    38    54     3    1
    39    54    55   ar
    40    66    68   ar
    41    66    65   ar
    42    68    70   ar
    43    57    55   ar
    44    57    58    1
    45     3    65    1
    46     3     4    1
    47    55    56    1
    48    65    74   ar
    49    70    71    1
    50    70    72   ar
    51    27    26    1
    52    29    28    1
    53    26    28   ar
    54    26    24   ar
    55    25    24    1
    56    28    30   ar
    57    24    22   ar
    58    74    72   ar
    59    74    75    1
    60    72    73    1
    61    30    31    1
    62    30    21   ar
    63    22    21   ar
    64    22    23    1
    65    21     1    1
    66     1     4    1
    67     1    10    1
    68     4     6    1
    69     4     5    1
    70    12    11    1
    71    10    11   ar
    72    10    19   ar
    73    11    13   ar
    74    20    19    1
    75    19    17   ar
    76    13    14    1
    77    13    15   ar
    78    17    15   ar
    79    17    18    1
    80    15    16    1
