@<TRIPOS>MOLECULE
7,30
 52 55 0 0 0
SMALL
GASTEIGER

@<TRIPOS>ATOM
      1 C          23.5216    9.9041    8.1066 C.3     1  UNL1       -0.0199
      2 H          23.9418   10.7855    7.6123 H       1  UNL1        0.0323
      3 H          23.9851    9.0214    7.6600 H       1  UNL1        0.0323
      4 C          21.9995    9.8418    7.9478 C.3     1  UNL1       -0.0199
      5 H          21.6902    8.8575    7.5807 H       1  UNL1        0.0323
      6 H          21.6199   10.5849    7.2401 H       1  UNL1        0.0323
      7 P          23.9802    9.9696    9.9170 P.3     1  UNL1       -0.0435
      8 C          24.3922   11.7502   10.0479 C.ar    1  UNL1       -0.0189
      9 C          23.6829   12.5842   10.8981 C.ar    1  UNL1       -0.0538
     10 H          22.8864   12.1723   11.4963 H       1  UNL1        0.0624
     11 C          23.9815   13.9338   10.9713 C.ar    1  UNL1       -0.0612
     12 H          23.4209   14.5718   11.6389 H       1  UNL1        0.0618
     13 C          24.9885   14.4622   10.1842 C.ar    1  UNL1       -0.0617
     14 H          25.2226   15.5153   10.2372 H       1  UNL1        0.0618
     15 C          25.6992   13.6369    9.3253 C.ar    1  UNL1       -0.0612
     16 H          26.4863   14.0472    8.7092 H       1  UNL1        0.0618
     17 C          25.4057   12.2892    9.2574 C.ar    1  UNL1       -0.0538
     18 H          25.9711   11.6442    8.5967 H       1  UNL1        0.0624
     19 C          25.6698    9.2903    9.9468 C.ar    1  UNL1       -0.0189
     20 C          26.5821    9.8595   10.8335 C.ar    1  UNL1       -0.0538
     21 H          26.2795   10.7107   11.4296 H       1  UNL1        0.0624
     22 C          27.8654    9.3600   10.9386 C.ar    1  UNL1       -0.0612
     23 H          28.5669    9.8156   11.6226 H       1  UNL1        0.0618
     24 C          28.2515    8.2751   10.1677 C.ar    1  UNL1       -0.0617
     25 H          29.2553    7.8854   10.2470 H       1  UNL1        0.0618
     26 C          27.3425    7.6853    9.3057 C.ar    1  UNL1       -0.0612
     27 H          27.6313    6.8273    8.7172 H       1  UNL1        0.0618
     28 C          26.0547    8.1814    9.1999 C.ar    1  UNL1       -0.0538
     29 H          25.3527    7.6835    8.5486 H       1  UNL1        0.0624
     30 P          21.1638   10.0482    9.5925 P.3     1  UNL1       -0.0435
     31 C          19.4937    9.4690    9.1500 C.ar    1  UNL1       -0.0189
     32 C          19.0460    8.2581    9.6583 C.ar    1  UNL1       -0.0538
     33 H          19.6795    7.7062   10.3336 H       1  UNL1        0.0624
     34 C          17.8016    7.7697    9.3036 C.ar    1  UNL1       -0.0612
     35 H          17.4622    6.8252    9.7009 H       1  UNL1        0.0618
     36 C          16.9965    8.4954    8.4426 C.ar    1  UNL1       -0.0617
     37 H          16.0228    8.1198    8.1648 H       1  UNL1        0.0618
     38 C          17.4376    9.7085    7.9356 C.ar    1  UNL1       -0.0612
     39 H          16.8077   10.2749    7.2647 H       1  UNL1        0.0618
     40 C          18.6824   10.1969    8.2838 C.ar    1  UNL1       -0.0538
     41 H          19.0247   11.1457    7.8924 H       1  UNL1        0.0624
     42 C          20.8549   11.8450    9.6575 C.ar    1  UNL1       -0.0189
     43 C          19.9216   12.2673   10.6007 C.ar    1  UNL1       -0.0538
     44 H          19.4116   11.5198   11.1905 H       1  UNL1        0.0624
     45 C          19.6469   13.6097   10.7700 C.ar    1  UNL1       -0.0612
     46 H          18.9173   13.9248   11.5023 H       1  UNL1        0.0618
     47 C          20.3089   14.5516    9.9978 C.ar    1  UNL1       -0.0617
     48 H          20.0975   15.6030   10.1263 H       1  UNL1        0.0618
     49 C          21.2413   14.1412    9.0611 C.ar    1  UNL1       -0.0612
     50 H          21.7620   14.8724    8.4596 H       1  UNL1        0.0618
     51 C          21.5199   12.7959    8.8929 C.ar    1  UNL1       -0.0538
     52 H          22.2620   12.5008    8.1660 H       1  UNL1        0.0624
@<TRIPOS>BOND
     1     6     4    1
     2    39    38    1
     3     5     4    1
     4     2     1    1
     5     3     1    1
     6    41    40    1
     7    38    40   ar
     8    38    36   ar
     9     4     1    1
    10     4    30    1
    11     1     7    1
    12    37    36    1
    13    52    51    1
    14    40    31   ar
    15    36    34   ar
    16    50    49    1
    17    29    28    1
    18    18    17    1
    19    16    15    1
    20    27    26    1
    21    51    49   ar
    22    51    42   ar
    23    49    47   ar
    24    31    30    1
    25    31    32   ar
    26    28    26   ar
    27    28    19   ar
    28    17    15   ar
    29    17     8   ar
    30    34    32   ar
    31    34    35    1
    32    26    24   ar
    33    15    13   ar
    34    30    42    1
    35    42    43   ar
    36    32    33    1
    37     7    19    1
    38     7     8    1
    39    19    20   ar
    40    47    48    1
    41    47    45   ar
    42     8     9   ar
    43    24    25    1
    44    24    22   ar
    45    13    14    1
    46    13    11   ar
    47    43    45   ar
    48    43    44    1
    49    45    46    1
    50    20    22   ar
    51    20    21    1
    52     9    11   ar
    53     9    10    1
    54    22    23    1
    55    11    12    1
