@<TRIPOS>MOLECULE
7,30
 52 55 0 0 0
SMALL
GASTEIGER

@<TRIPOS>ATOM
      1 C          -0.0239    3.6503    5.4029 C.3     1  UNL1       -0.0199
      2 H           0.3743    3.9367    4.4224 H       1  UNL1        0.0323
      3 H          -0.9360    3.0643    5.2524 H       1  UNL1        0.0323
      4 C          -0.2978    4.9123    6.2148 C.3     1  UNL1       -0.0199
      5 H          -0.9460    4.6975    7.0672 H       1  UNL1        0.0323
      6 H          -0.7607    5.6917    5.6009 H       1  UNL1        0.0323
      7 P           1.3139    2.6157    6.2268 P.3     1  UNL1       -0.0435
      8 C           2.1652    2.0004    4.7274 C.ar    1  UNL1       -0.0189
      9 C           3.5512    2.0193    4.6819 C.ar    1  UNL1       -0.0538
     10 H           4.0898    2.3779    5.5452 H       1  UNL1        0.0624
     11 C           4.2252    1.5777    3.5568 C.ar    1  UNL1       -0.0612
     12 H           5.3056    1.5956    3.5295 H       1  UNL1        0.0618
     13 C           3.5121    1.1108    2.4662 C.ar    1  UNL1       -0.0617
     14 H           4.0335    0.7672    1.5846 H       1  UNL1        0.0618
     15 C           2.1266    1.0772    2.5083 C.ar    1  UNL1       -0.0612
     16 H           1.5709    0.7028    1.6603 H       1  UNL1        0.0618
     17 C           1.4541    1.5175    3.6324 C.ar    1  UNL1       -0.0538
     18 H           0.3744    1.4767    3.6712 H       1  UNL1        0.0624
     19 C           0.3887    1.1146    6.6901 C.ar    1  UNL1       -0.0189
     20 C           0.8393   -0.1665    6.3902 C.ar    1  UNL1       -0.0538
     21 H           1.7272   -0.2968    5.7867 H       1  UNL1        0.0624
     22 C           0.1526   -1.2730    6.8602 C.ar    1  UNL1       -0.0612
     23 H           0.5053   -2.2656    6.6189 H       1  UNL1        0.0618
     24 C          -0.9765   -1.1111    7.6449 C.ar    1  UNL1       -0.0617
     25 H          -1.5074   -1.9768    8.0129 H       1  UNL1        0.0618
     26 C          -1.4170    0.1635    7.9675 C.ar    1  UNL1       -0.0612
     27 H          -2.2900    0.2912    8.5911 H       1  UNL1        0.0618
     28 C          -0.7347    1.2675    7.4970 C.ar    1  UNL1       -0.0538
     29 H          -1.0487    2.2670    7.7618 H       1  UNL1        0.0624
     30 P           1.3339    5.4485    6.9143 P.3     1  UNL1       -0.0435
     31 C           0.9076    6.8205    8.0233 C.ar    1  UNL1       -0.0189
     32 C           0.1588    6.4739    9.1455 C.ar    1  UNL1       -0.0538
     33 H          -0.1543    5.4451    9.2535 H       1  UNL1        0.0624
     34 C          -0.1326    7.4164   10.1108 C.ar    1  UNL1       -0.0612
     35 H          -0.7212    7.1444   10.9751 H       1  UNL1        0.0618
     36 C           0.3452    8.7118    9.9776 C.ar    1  UNL1       -0.0617
     37 H           0.1218    9.4515   10.7325 H       1  UNL1        0.0618
     38 C           1.1286    9.0507    8.8878 C.ar    1  UNL1       -0.0612
     39 H           1.5224   10.0530    8.7971 H       1  UNL1        0.0618
     40 C           1.4185    8.1088    7.9151 C.ar    1  UNL1       -0.0538
     41 H           2.0453    8.3749    7.0754 H       1  UNL1        0.0624
     42 C           2.0307    6.2529    5.4306 C.ar    1  UNL1       -0.0189
     43 C           1.4185    7.3240    4.7866 C.ar    1  UNL1       -0.0538
     44 H           0.5167    7.7568    5.1990 H       1  UNL1        0.0624
     45 C           1.9670    7.8338    3.6243 C.ar    1  UNL1       -0.0612
     46 H           1.4940    8.6686    3.1268 H       1  UNL1        0.0618
     47 C           3.1191    7.2749    3.0923 C.ar    1  UNL1       -0.0617
     48 H           3.5406    7.6764    2.1822 H       1  UNL1        0.0618
     49 C           3.7254    6.2016    3.7235 C.ar    1  UNL1       -0.0612
     50 H           4.6182    5.7603    3.3045 H       1  UNL1        0.0618
     51 C           3.1809    5.6950    4.8894 C.ar    1  UNL1       -0.0538
     52 H           3.6277    4.8531    5.3995 H       1  UNL1        0.0624
@<TRIPOS>BOND
     1    14    13    1
     2    16    15    1
     3    48    47    1
     4    13    15   ar
     5    13    11   ar
     6    15    17   ar
     7    47    45   ar
     8    47    49   ar
     9    46    45    1
    10    50    49    1
    11    12    11    1
    12    11     9   ar
    13    45    43   ar
    14    17    18    1
    15    17     8   ar
    16    49    51   ar
    17     2     1    1
    18     9     8   ar
    19     9    10    1
    20     8     7    1
    21    43    44    1
    22    43    42   ar
    23    51    52    1
    24    51    42   ar
    25     3     1    1
    26     1     4    1
    27     1     7    1
    28    42    30    1
    29     6     4    1
    30    21    20    1
    31     4    30    1
    32     4     5    1
    33     7    19    1
    34    20    19   ar
    35    20    22   ar
    36    23    22    1
    37    19    28   ar
    38    22    24   ar
    39    30    31    1
    40    41    40    1
    41    28    29    1
    42    28    26   ar
    43    24    26   ar
    44    24    25    1
    45    40    31   ar
    46    40    38   ar
    47    26    27    1
    48    31    32   ar
    49    39    38    1
    50    38    36   ar
    51    32    33    1
    52    32    34   ar
    53    36    34   ar
    54    36    37    1
    55    34    35    1
