@<TRIPOS>MOLECULE
1,30
 52 55 0 0 0
SMALL
GASTEIGER

@<TRIPOS>ATOM
      1 P           7.5986   11.1510   -0.1528 P.3     1  UNL1       -0.0435
      2 C           9.2530   11.9019   -0.5703 C.3     1  UNL1       -0.0199
      3 H          10.0576   11.1733   -0.4370 H       1  UNL1        0.0323
      4 H           9.2103   12.2029   -1.6231 H       1  UNL1        0.0323
      5 C           9.4547   13.1160    0.3233 C.3     1  UNL1       -0.0199
      6 H          10.3370   13.7018    0.0517 H       1  UNL1        0.0323
      7 H           9.5815   12.8008    1.3624 H       1  UNL1        0.0323
      8 C           8.1080   10.0516    1.2105 C.ar    1  UNL1       -0.0189
      9 C           8.3705    8.6968    1.0428 C.ar    1  UNL1       -0.0538
     10 H           8.2355    8.2311    0.0779 H       1  UNL1        0.0624
     11 C           8.7962    7.9369    2.1184 C.ar    1  UNL1       -0.0612
     12 H           8.9945    6.8846    1.9826 H       1  UNL1        0.0618
     13 C           8.9653    8.5183    3.3640 C.ar    1  UNL1       -0.0617
     14 H           9.2955    7.9204    4.1993 H       1  UNL1        0.0618
     15 C           8.7040    9.8681    3.5377 C.ar    1  UNL1       -0.0612
     16 H           8.8316   10.3240    4.5083 H       1  UNL1        0.0618
     17 C           8.2734   10.6276    2.4665 C.ar    1  UNL1       -0.0538
     18 H           8.0478   11.6772    2.5961 H       1  UNL1        0.0624
     19 C           7.3442   10.0543   -1.5809 C.ar    1  UNL1       -0.0189
     20 C           6.0508    9.9471   -2.0797 C.ar    1  UNL1       -0.0538
     21 H           5.2629   10.5033   -1.5949 H       1  UNL1        0.0624
     22 C           5.7874    9.1463   -3.1761 C.ar    1  UNL1       -0.0612
     23 H           4.7805    9.0667   -3.5575 H       1  UNL1        0.0618
     24 C           6.8166    8.4458   -3.7840 C.ar    1  UNL1       -0.0617
     25 H           6.6144    7.8171   -4.6375 H       1  UNL1        0.0618
     26 C           8.1093    8.5531   -3.2956 C.ar    1  UNL1       -0.0612
     27 H           8.9117    8.0079   -3.7692 H       1  UNL1        0.0618
     28 C           8.3777    9.3554   -2.2009 C.ar    1  UNL1       -0.0538
     29 H           9.3895    9.4312   -1.8299 H       1  UNL1        0.0624
     30 P           7.9167   14.1435    0.2305 P.3     1  UNL1       -0.0435
     31 C           8.2687   15.3513    1.5482 C.ar    1  UNL1       -0.0189
     32 C           8.3097   14.8871    2.8608 C.ar    1  UNL1       -0.0538
     33 H           8.1284   13.8402    3.0636 H       1  UNL1        0.0624
     34 C           8.5806   15.7527    3.9027 C.ar    1  UNL1       -0.0612
     35 H           8.6124   15.3840    4.9170 H       1  UNL1        0.0618
     36 C           8.8090   17.0952    3.6436 C.ar    1  UNL1       -0.0617
     37 H           9.0164   17.7737    4.4565 H       1  UNL1        0.0618
     38 C           8.7737   17.5629    2.3410 C.ar    1  UNL1       -0.0612
     39 H           8.9570   18.6067    2.1365 H       1  UNL1        0.0618
     40 C           8.5042   16.6978    1.2943 C.ar    1  UNL1       -0.0538
     41 H           8.4842   17.0698    0.2802 H       1  UNL1        0.0624
     42 C           8.1420   15.1313   -1.2858 C.ar    1  UNL1       -0.0189
     43 C           7.0268   15.8772   -1.6635 C.ar    1  UNL1       -0.0538
     44 H           6.1426   15.8244   -1.0462 H       1  UNL1        0.0624
     45 C           7.0512   16.6611   -2.8000 C.ar    1  UNL1       -0.0612
     46 H           6.1835   17.2417   -3.0751 H       1  UNL1        0.0618
     47 C           8.1933   16.6984   -3.5859 C.ar    1  UNL1       -0.0617
     48 H           8.2203   17.3085   -4.4759 H       1  UNL1        0.0618
     49 C           9.3011   15.9504   -3.2253 C.ar    1  UNL1       -0.0612
     50 H          10.1912   15.9777   -3.8357 H       1  UNL1        0.0618
     51 C           9.2807   15.1681   -2.0818 C.ar    1  UNL1       -0.0538
     52 H          10.1623   14.6013   -1.8244 H       1  UNL1        0.0624
@<TRIPOS>BOND
     1    25    24    1
     2    48    47    1
     3    50    49    1
     4    24    26   ar
     5    24    22   ar
     6    27    26    1
     7    47    49   ar
     8    47    45   ar
     9    23    22    1
    10    26    28   ar
    11    49    51   ar
    12    22    20   ar
    13    46    45    1
    14    45    43   ar
    15    28    29    1
    16    28    19   ar
    17    51    52    1
    18    51    42   ar
    19    20    21    1
    20    20    19   ar
    21    43    42   ar
    22    43    44    1
    23     4     2    1
    24    19     1    1
    25    42    30    1
    26     2     3    1
    27     2     1    1
    28     2     5    1
    29     1     8    1
    30     6     5    1
    31    10     9    1
    32    30     5    1
    33    30    31    1
    34    41    40    1
    35     5     7    1
    36     9     8   ar
    37     9    11   ar
    38     8    17   ar
    39    40    31   ar
    40    40    38   ar
    41    31    32   ar
    42    12    11    1
    43    11    13   ar
    44    39    38    1
    45    38    36   ar
    46    17    18    1
    47    17    15   ar
    48    32    33    1
    49    32    34   ar
    50    13    15   ar
    51    13    14    1
    52    15    16    1
    53    36    34   ar
    54    36    37    1
    55    34    35    1
