@<TRIPOS>MOLECULE
1,2
 52 55 0 0 0
SMALL
GASTEIGER

@<TRIPOS>ATOM
      1 P          -1.8597    8.5285    2.7356 P.3     1  UNL1       -0.0435
      2 P          -1.7541    5.6198    3.2012 P.3     1  UNL1       -0.0435
      3 C          -1.2601    3.5730    4.9865 C.ar    1  UNL1       -0.0538
      4 H          -2.2875    3.3000    4.7813 H       1  UNL1        0.0624
      5 C          -1.8721    3.2119    1.7623 C.ar    1  UNL1       -0.0538
      6 H          -0.8039    3.1665    1.9258 H       1  UNL1        0.0624
      7 C           0.6261    4.9911    4.5551 C.ar    1  UNL1       -0.0538
      8 H           1.0645    5.8311    4.0364 H       1  UNL1        0.0624
      9 C          -2.6006    4.2742    2.2887 C.ar    1  UNL1       -0.0189
     10 C          -2.7428    8.7557    1.1485 C.ar    1  UNL1       -0.0189
     11 C          -0.6804    4.6149    4.2680 C.ar    1  UNL1       -0.0189
     12 C          -2.3354   11.1378    3.3558 C.ar    1  UNL1       -0.0538
     13 H          -3.3599   10.8076    3.2546 H       1  UNL1        0.0624
     14 C          -0.5340    2.8952    5.9470 C.ar    1  UNL1       -0.0612
     15 H          -0.9903    2.0854    6.4987 H       1  UNL1        0.0618
     16 C          -1.3154   10.2267    3.0863 C.ar    1  UNL1       -0.0189
     17 C          -3.5787    7.7140    0.7676 C.ar    1  UNL1       -0.0538
     18 H          -3.6949    6.8851    1.4541 H       1  UNL1        0.0624
     19 C          -2.5799    9.8476    0.3049 C.ar    1  UNL1       -0.0538
     20 H          -1.9309   10.6621    0.5948 H       1  UNL1        0.0624
     21 C           0.0059   10.6356    3.2214 C.ar    1  UNL1       -0.0538
     22 H           0.8134    9.9451    3.0308 H       1  UNL1        0.0624
     23 C           0.7769    3.2595    6.2089 C.ar    1  UNL1       -0.0617
     24 H           1.3449    2.7330    6.9618 H       1  UNL1        0.0618
     25 C           0.2963   11.9348    3.6023 C.ar    1  UNL1       -0.0612
     26 H           1.3264   12.2455    3.7027 H       1  UNL1        0.0618
     27 C          -0.3309    7.7078    2.0638 C.3     1  UNL1       -0.0199
     28 H           0.0248    8.1983    1.1508 H       1  UNL1        0.0323
     29 H           0.4199    7.8026    2.8514 H       1  UNL1        0.0323
     30 C          -0.6439    6.2349    1.8297 C.3     1  UNL1       -0.0199
     31 H           0.2658    5.6311    1.7496 H       1  UNL1        0.0323
     32 H          -1.2129    6.1219    0.8994 H       1  UNL1        0.0323
     33 C          -4.0848    8.8456   -1.2781 C.ar    1  UNL1       -0.0617
     34 H          -4.6079    8.8861   -2.2223 H       1  UNL1        0.0618
     35 C          -4.2427    7.7505   -0.4435 C.ar    1  UNL1       -0.0612
     36 H          -4.8842    6.9324   -0.7388 H       1  UNL1        0.0618
     37 C          -3.2571    9.8911   -0.9013 C.ar    1  UNL1       -0.0612
     38 H          -3.1367   10.7443   -1.5534 H       1  UNL1        0.0618
     39 C          -2.5132    2.2183    1.0471 C.ar    1  UNL1       -0.0612
     40 H          -1.9447    1.3939    0.6410 H       1  UNL1        0.0618
     41 C           1.3536    4.3097    5.5130 C.ar    1  UNL1       -0.0612
     42 H           2.3712    4.6038    5.7276 H       1  UNL1        0.0618
     43 C          -3.9723    4.3243    2.0901 C.ar    1  UNL1       -0.0538
     44 H          -4.5312    5.1491    2.5070 H       1  UNL1        0.0624
     45 C          -3.8848    2.2756    0.8510 C.ar    1  UNL1       -0.0617
     46 H          -4.3827    1.4961    0.2928 H       1  UNL1        0.0618
     47 C          -4.6147    3.3292    1.3737 C.ar    1  UNL1       -0.0612
     48 H          -5.6841    3.3751    1.2247 H       1  UNL1        0.0618
     49 C          -0.7235   12.8347    3.8589 C.ar    1  UNL1       -0.0617
     50 H          -0.4905   13.8458    4.1591 H       1  UNL1        0.0618
     51 C          -2.0447   12.4334    3.7334 C.ar    1  UNL1       -0.0612
     52 H          -2.8436   13.1329    3.9349 H       1  UNL1        0.0618
@<TRIPOS>BOND
     1    34    33    1
     2    38    37    1
     3    33    37   ar
     4    33    35   ar
     5    37    19   ar
     6    36    35    1
     7    35    17   ar
     8    46    45    1
     9    19    20    1
    10    19    10   ar
    11    40    39    1
    12    17    10   ar
    13    17    18    1
    14    45    39   ar
    15    45    47   ar
    16    32    30    1
    17    39     5   ar
    18    10     1    1
    19    28    27    1
    20    48    47    1
    21    47    43   ar
    22    31    30    1
    23     5     6    1
    24     5     9   ar
    25    30    27    1
    26    30     2    1
    27    27     1    1
    28    27    29    1
    29    43     9   ar
    30    43    44    1
    31     9     2    1
    32     1    16    1
    33    22    21    1
    34    16    21   ar
    35    16    12   ar
    36     2    11    1
    37    21    25   ar
    38    13    12    1
    39    12    51   ar
    40    25    26    1
    41    25    49   ar
    42    51    49   ar
    43    51    52    1
    44    49    50    1
    45     8     7    1
    46    11     7   ar
    47    11     3   ar
    48     7    41   ar
    49     4     3    1
    50     3    14   ar
    51    41    42    1
    52    41    23   ar
    53    14    23   ar
    54    14    15    1
    55    23    24    1
