@<TRIPOS>MOLECULE
1,2
 52 55 0 0 0
SMALL
GASTEIGER

@<TRIPOS>ATOM
      1 P           1.8120   11.0725    5.3996 P.3     1  UNL1       -0.0435
      2 P           1.0129    8.9553    3.4962 P.3     1  UNL1       -0.0435
      3 C           0.8232    8.5111    5.2992 C.3     1  UNL1       -0.0199
      4 H          -0.1989    8.7461    5.6114 H       1  UNL1        0.0323
      5 H           0.9987    7.4424    5.4496 H       1  UNL1        0.0323
      6 C           1.8229    9.3467    6.0923 C.3     1  UNL1       -0.0199
      7 H           2.8300    8.9526    5.9356 H       1  UNL1        0.0323
      8 H           1.5978    9.3413    7.1623 H       1  UNL1        0.0323
      9 C          -0.7001    8.8523    2.8816 C.ar    1  UNL1       -0.0189
     10 C          -1.0008    8.2063    1.6864 C.ar    1  UNL1       -0.0538
     11 H          -0.2247    7.6706    1.1571 H       1  UNL1        0.0624
     12 C          -2.2864    8.2414    1.1773 C.ar    1  UNL1       -0.0612
     13 H          -2.5109    7.7309    0.2519 H       1  UNL1        0.0618
     14 C          -3.2827    8.9325    1.8464 C.ar    1  UNL1       -0.0617
     15 H          -4.2855    8.9598    1.4464 H       1  UNL1        0.0618
     16 C          -2.9860    9.5977    3.0251 C.ar    1  UNL1       -0.0612
     17 H          -3.7559   10.1495    3.5452 H       1  UNL1        0.0618
     18 C          -1.7017    9.5643    3.5344 C.ar    1  UNL1       -0.0538
     19 H          -1.4696   10.1055    4.4411 H       1  UNL1        0.0624
     20 C           1.7295    7.4418    2.7784 C.ar    1  UNL1       -0.0189
     21 C           2.8281    7.5594    1.9375 C.ar    1  UNL1       -0.0538
     22 H           3.2510    8.5369    1.7639 H       1  UNL1        0.0624
     23 C           3.3817    6.4308    1.3586 C.ar    1  UNL1       -0.0612
     24 H           4.2414    6.5236    0.7116 H       1  UNL1        0.0618
     25 C           2.8359    5.1840    1.6119 C.ar    1  UNL1       -0.0617
     26 H           3.2682    4.3018    1.1625 H       1  UNL1        0.0618
     27 C           1.7310    5.0637    2.4415 C.ar    1  UNL1       -0.0612
     28 H           1.3017    4.0904    2.6323 H       1  UNL1        0.0618
     29 C           1.1757    6.1873    3.0228 C.ar    1  UNL1       -0.0538
     30 H           0.3017    6.0977    3.6553 H       1  UNL1        0.0624
     31 C           0.2784   11.7095    6.1776 C.ar    1  UNL1       -0.0189
     32 C          -0.7028   12.2935    5.3896 C.ar    1  UNL1       -0.0538
     33 H          -0.5311   12.3762    4.3288 H       1  UNL1        0.0624
     34 C          -1.8749   12.7662    5.9554 C.ar    1  UNL1       -0.0612
     35 H          -2.6320   13.2179    5.3305 H       1  UNL1        0.0618
     36 C          -2.0728   12.6599    7.3209 C.ar    1  UNL1       -0.0617
     37 H          -2.9867   13.0243    7.7667 H       1  UNL1        0.0618
     38 C          -1.0896   12.0945    8.1187 C.ar    1  UNL1       -0.0612
     39 H          -1.2369   12.0236    9.1868 H       1  UNL1        0.0618
     40 C           0.0810   11.6259    7.5534 C.ar    1  UNL1       -0.0538
     41 H           0.8546   11.2087    8.1836 H       1  UNL1        0.0624
     42 C           3.0222   11.9322    6.4537 C.ar    1  UNL1       -0.0189
     43 C           2.7727   13.2585    6.8001 C.ar    1  UNL1       -0.0538
     44 H           1.8577   13.7322    6.4682 H       1  UNL1        0.0624
     45 C           3.6803   13.9657    7.5650 C.ar    1  UNL1       -0.0612
     46 H           3.4748   14.9919    7.8340 H       1  UNL1        0.0618
     47 C           4.8556   13.3605    7.9795 C.ar    1  UNL1       -0.0617
     48 H           5.5662   13.9130    8.5765 H       1  UNL1        0.0618
     49 C           5.1216   12.0509    7.6171 C.ar    1  UNL1       -0.0612
     50 H           6.0446   11.5823    7.9256 H       1  UNL1        0.0618
     51 C           4.2145   11.3377    6.8533 C.ar    1  UNL1       -0.0538
     52 H           4.4448   10.3299    6.5459 H       1  UNL1        0.0624
@<TRIPOS>BOND
     1    13    12    1
     2    24    23    1
     3    11    10    1
     4    26    25    1
     5    12    10   ar
     6    12    14   ar
     7    23    25   ar
     8    23    21   ar
     9    15    14    1
    10    25    27   ar
    11    10     9   ar
    12    22    21    1
    13    14    16   ar
    14    21    20   ar
    15    27    28    1
    16    27    29   ar
    17    20    29   ar
    18    20     2    1
    19     9     2    1
    20     9    18   ar
    21    29    30    1
    22    16    18   ar
    23    16    17    1
    24     2     3    1
    25    18    19    1
    26    33    32    1
    27     3     5    1
    28     3     4    1
    29     3     6    1
    30    35    34    1
    31    32    34   ar
    32    32    31   ar
    33     1     6    1
    34     1    31    1
    35     1    42    1
    36     7     6    1
    37    34    36   ar
    38     6     8    1
    39    31    40   ar
    40    42    43   ar
    41    42    51   ar
    42    44    43    1
    43    52    51    1
    44    43    45   ar
    45    51    49   ar
    46    36    37    1
    47    36    38   ar
    48    40    38   ar
    49    40    41    1
    50    45    46    1
    51    45    47   ar
    52    49    50    1
    53    49    47   ar
    54    47    48    1
    55    38    39    1
