@<TRIPOS>MOLECULE
7,30
 52 55 0 0 0
SMALL
GASTEIGER

@<TRIPOS>ATOM
      1 C           2.5771    4.0401    6.4358 C.3     1  UNL1       -0.0199
      2 H           2.7562    5.1152    6.5293 H       1  UNL1        0.0323
      3 H           3.2150    3.5271    7.1586 H       1  UNL1        0.0323
      4 C           2.8762    3.5409    5.0200 C.3     1  UNL1       -0.0199
      5 H           3.4684    2.6216    5.0653 H       1  UNL1        0.0323
      6 H           3.4300    4.2685    4.4192 H       1  UNL1        0.0323
      7 P           0.7941    3.6926    6.8915 P.3     1  UNL1       -0.0435
      8 C           0.9107    3.5513    8.7039 C.ar    1  UNL1       -0.0189
      9 C           0.0594    4.2591    9.5486 C.ar    1  UNL1       -0.0538
     10 H          -0.6658    4.9451    9.1316 H       1  UNL1        0.0624
     11 C           0.1492    4.1029   10.9201 C.ar    1  UNL1       -0.0612
     12 H          -0.5088    4.6644   11.5679 H       1  UNL1        0.0618
     13 C           1.0749    3.2269   11.4618 C.ar    1  UNL1       -0.0617
     14 H           1.1451    3.1101   12.5334 H       1  UNL1        0.0618
     15 C           1.8993    2.4920   10.6252 C.ar    1  UNL1       -0.0612
     16 H           2.6082    1.7921   11.0428 H       1  UNL1        0.0618
     17 C           1.8134    2.6447    9.2539 C.ar    1  UNL1       -0.0538
     18 H           2.4275    2.0410    8.6024 H       1  UNL1        0.0624
     19 C           0.1020    5.3776    6.7071 C.ar    1  UNL1       -0.0189
     20 C          -0.9361    5.6039    5.8155 C.ar    1  UNL1       -0.0538
     21 H          -1.3335    4.7730    5.2556 H       1  UNL1        0.0624
     22 C          -1.4426    6.8786    5.6324 C.ar    1  UNL1       -0.0612
     23 H          -2.2510    7.0412    4.9345 H       1  UNL1        0.0618
     24 C          -0.9061    7.9425    6.3355 C.ar    1  UNL1       -0.0617
     25 H          -1.2965    8.9395    6.1933 H       1  UNL1        0.0618
     26 C           0.1362    7.7274    7.2244 C.ar    1  UNL1       -0.0612
     27 H           0.5570    8.5571    7.7743 H       1  UNL1        0.0618
     28 C           0.6379    6.4537    7.4111 C.ar    1  UNL1       -0.0538
     29 H           1.4435    6.2872    8.1145 H       1  UNL1        0.0624
     30 P           1.3144    3.0378    4.1538 P.3     1  UNL1       -0.0435
     31 C           2.0525    2.1493    2.7429 C.ar    1  UNL1       -0.0189
     32 C           2.3050    0.7937    2.9254 C.ar    1  UNL1       -0.0538
     33 H           2.0517    0.3425    3.8730 H       1  UNL1        0.0624
     34 C           2.8810    0.0506    1.9126 C.ar    1  UNL1       -0.0612
     35 H           3.0757   -1.0013    2.0590 H       1  UNL1        0.0618
     36 C           3.2051    0.6565    0.7094 C.ar    1  UNL1       -0.0617
     37 H           3.6483    0.0774   -0.0876 H       1  UNL1        0.0618
     38 C           2.9642    2.0086    0.5270 C.ar    1  UNL1       -0.0612
     39 H           3.2236    2.4824   -0.4090 H       1  UNL1        0.0618
     40 C           2.3911    2.7582    1.5391 C.ar    1  UNL1       -0.0538
     41 H           2.2028    3.8124    1.3914 H       1  UNL1        0.0624
     42 C           0.7516    4.5795    3.3569 C.ar    1  UNL1       -0.0189
     43 C          -0.2735    4.4513    2.4222 C.ar    1  UNL1       -0.0538
     44 H          -0.6266    3.4601    2.1783 H       1  UNL1        0.0624
     45 C          -0.8159    5.5641    1.8108 C.ar    1  UNL1       -0.0612
     46 H          -1.6074    5.4512    1.0836 H       1  UNL1        0.0618
     47 C          -0.3433    6.8272    2.1321 C.ar    1  UNL1       -0.0617
     48 H          -0.7658    7.7007    1.6577 H       1  UNL1        0.0618
     49 C           0.6718    6.9652    3.0624 C.ar    1  UNL1       -0.0612
     50 H           1.0411    7.9480    3.3176 H       1  UNL1        0.0618
     51 C           1.2146    5.8499    3.6766 C.ar    1  UNL1       -0.0538
     52 H           1.9968    5.9825    4.4084 H       1  UNL1        0.0624
@<TRIPOS>BOND
     1    39    38    1
     2    37    36    1
     3    38    36   ar
     4    38    40   ar
     5    36    34   ar
     6    46    45    1
     7    41    40    1
     8    40    31   ar
     9    48    47    1
    10    45    47   ar
    11    45    43   ar
    12    34    35    1
    13    34    32   ar
    14    47    49   ar
    15    44    43    1
    16    43    42   ar
    17    31    32   ar
    18    31    30    1
    19    32    33    1
    20    49    50    1
    21    49    51   ar
    22    42    51   ar
    23    42    30    1
    24    51    52    1
    25    30     4    1
    26     6     4    1
    27    23    22    1
    28     4     5    1
    29     4     1    1
    30    21    20    1
    31    22    20   ar
    32    22    24   ar
    33    20    19   ar
    34    25    24    1
    35    24    26   ar
    36     1     2    1
    37     1     7    1
    38     1     3    1
    39    19     7    1
    40    19    28   ar
    41     7     8    1
    42    26    28   ar
    43    26    27    1
    44    28    29    1
    45    18    17    1
    46     8    17   ar
    47     8     9   ar
    48    10     9    1
    49    17    15   ar
    50     9    11   ar
    51    15    16    1
    52    15    13   ar
    53    11    13   ar
    54    11    12    1
    55    13    14    1
