@<TRIPOS>MOLECULE
1,2
 36 35 0 0 0
SMALL
GASTEIGER

@<TRIPOS>ATOM
      1 P           2.7605    5.1953    5.6750 P.3     1  UNL1       -0.1061
      2 P           3.2363    4.7696    2.6001 P.3     1  UNL1       -0.1061
      3 C           2.8362    6.6685    4.5590 C.3     1  UNL1       -0.0284
      4 H           1.8199    6.8810    4.2121 H       1  UNL1        0.0316
      5 H           3.2029    7.5378    5.1151 H       1  UNL1        0.0316
      6 C           3.7262    6.3711    3.3715 C.3     1  UNL1       -0.0284
      7 H           4.7624    6.2381    3.7040 H       1  UNL1        0.0316
      8 H           3.6940    7.1866    2.6412 H       1  UNL1        0.0316
      9 C           1.5068    5.8148    6.9021 C.3     1  UNL1       -0.0351
     10 H           0.5263    5.5483    6.5038 H       1  UNL1        0.0310
     11 H           1.6605    5.2267    7.8111 H       1  UNL1        0.0310
     12 C           1.5064    7.2975    7.2594 C.3     1  UNL1       -0.0613
     13 H           0.7811    7.4719    8.0537 H       1  UNL1        0.0233
     14 H           1.2229    7.9128    6.4094 H       1  UNL1        0.0233
     15 H           2.4770    7.6282    7.6211 H       1  UNL1        0.0233
     16 C           4.3104    5.5360    6.6163 C.3     1  UNL1       -0.0351
     17 H           5.1278    5.5086    5.8907 H       1  UNL1        0.0310
     18 H           4.2536    6.5530    7.0186 H       1  UNL1        0.0310
     19 C           4.5934    4.5416    7.7301 C.3     1  UNL1       -0.0613
     20 H           5.5963    4.6907    8.1271 H       1  UNL1        0.0233
     21 H           4.5250    3.5278    7.3409 H       1  UNL1        0.0233
     22 H           3.8859    4.6564    8.5503 H       1  UNL1        0.0233
     23 C           2.0454    5.3397    1.3045 C.3     1  UNL1       -0.0351
     24 H           1.0816    5.4639    1.8077 H       1  UNL1        0.0310
     25 H           2.3462    6.3169    0.9139 H       1  UNL1        0.0310
     26 C           1.9316    4.3160    0.1791 C.3     1  UNL1       -0.0613
     27 H           1.0090    4.4545   -0.3843 H       1  UNL1        0.0233
     28 H           1.9483    3.3060    0.5879 H       1  UNL1        0.0233
     29 H           2.7648    4.4054   -0.5137 H       1  UNL1        0.0233
     30 C           4.7365    4.4707    1.5804 C.3     1  UNL1       -0.0351
     31 H           5.5166    4.1598    2.2821 H       1  UNL1        0.0310
     32 H           4.5127    3.6016    0.9573 H       1  UNL1        0.0310
     33 C           5.2506    5.6170    0.7151 C.3     1  UNL1       -0.0613
     34 H           6.0946    5.2638    0.1245 H       1  UNL1        0.0233
     35 H           5.5928    6.4526    1.3210 H       1  UNL1        0.0233
     36 H           4.4889    5.9774    0.0280 H       1  UNL1        0.0233
@<TRIPOS>BOND
     1    29    26    1
     2    27    26    1
     3    36    33    1
     4    34    33    1
     5    26    28    1
     6    26    23    1
     7    33    35    1
     8    33    30    1
     9    25    23    1
    10    32    30    1
    11    23    24    1
    12    23     2    1
    13    30    31    1
    14    30     2    1
    15     2     6    1
    16     8     6    1
    17     6     7    1
    18     6     3    1
    19     4     3    1
    20     3     5    1
    21     3     1    1
    22     1    16    1
    23     1     9    1
    24    17    16    1
    25    14    12    1
    26    10     9    1
    27    16    18    1
    28    16    19    1
    29     9    12    1
    30     9    11    1
    31    12    15    1
    32    12    13    1
    33    21    19    1
    34    19    20    1
    35    19    22    1
