@<TRIPOS>MOLECULE
1,2
 36 35 0 0 0
SMALL
GASTEIGER

@<TRIPOS>ATOM
      1 P           0.2458    3.0539    4.1059 P.3     1  UNL1       -0.1061
      2 P           2.1287    1.6670    6.0503 P.3     1  UNL1       -0.1061
      3 C          -0.4195    1.5997    5.0566 C.3     1  UNL1       -0.0284
      4 H          -0.9400    1.9905    5.9372 H       1  UNL1        0.0316
      5 H          -1.1514    1.0673    4.4416 H       1  UNL1        0.0316
      6 C           0.6934    0.6660    5.4917 C.3     1  UNL1       -0.0284
      7 H           1.0519    0.0692    4.6470 H       1  UNL1        0.0316
      8 H           0.3551   -0.0221    6.2738 H       1  UNL1        0.0316
      9 C          -1.0607    4.2528    4.6579 C.3     1  UNL1       -0.0351
     10 H          -2.0366    3.7783    4.5181 H       1  UNL1        0.0310
     11 H          -0.9255    4.4071    5.7328 H       1  UNL1        0.0310
     12 C          -0.9946    5.5844    3.9294 C.3     1  UNL1       -0.0613
     13 H          -1.6902    6.3019    4.3639 H       1  UNL1        0.0233
     14 H          -1.2395    5.4670    2.8756 H       1  UNL1        0.0233
     15 H           0.0126    5.9915    4.0019 H       1  UNL1        0.0233
     16 C          -0.3910    2.6686    2.4121 C.3     1  UNL1       -0.0351
     17 H           0.0186    3.4351    1.7531 H       1  UNL1        0.0310
     18 H           0.0941    1.7242    2.1474 H       1  UNL1        0.0310
     19 C          -1.8931    2.5494    2.1803 C.3     1  UNL1       -0.0613
     20 H          -2.0683    2.1640    1.1764 H       1  UNL1        0.0233
     21 H          -2.3911    3.5131    2.2549 H       1  UNL1        0.0233
     22 H          -2.3634    1.8644    2.8831 H       1  UNL1        0.0233
     23 C           3.1292    0.2860    6.7434 C.3     1  UNL1       -0.0351
     24 H           2.4986   -0.2620    7.4514 H       1  UNL1        0.0310
     25 H           3.3490   -0.3825    5.9092 H       1  UNL1        0.0310
     26 C           4.4162    0.7368    7.4171 C.3     1  UNL1       -0.0613
     27 H           5.0047   -0.1257    7.7273 H       1  UNL1        0.0233
     28 H           4.2056    1.3383    8.3000 H       1  UNL1        0.0233
     29 H           5.0156    1.3273    6.7270 H       1  UNL1        0.0233
     30 C           1.4487    2.4244    7.5938 C.3     1  UNL1       -0.0351
     31 H           2.2704    3.0191    8.0030 H       1  UNL1        0.0310
     32 H           0.6887    3.1293    7.2382 H       1  UNL1        0.0310
     33 C           0.8656    1.5331    8.6841 C.3     1  UNL1       -0.0613
     34 H           0.4350    2.1549    9.4691 H       1  UNL1        0.0233
     35 H           1.6309    0.9093    9.1388 H       1  UNL1        0.0233
     36 H           0.0771    0.8903    8.2990 H       1  UNL1        0.0233
@<TRIPOS>BOND
     1    20    19    1
     2    17    16    1
     3    18    16    1
     4    19    21    1
     5    19    16    1
     6    19    22    1
     7    16     1    1
     8    14    12    1
     9    12    15    1
    10    12    13    1
    11    12     9    1
    12     1     9    1
    13     1     3    1
    14     5     3    1
    15    10     9    1
    16     7     6    1
    17     9    11    1
    18     3     6    1
    19     3     4    1
    20     6     2    1
    21     6     8    1
    22    25    23    1
    23     2    23    1
    24     2    30    1
    25    29    26    1
    26    23    26    1
    27    23    24    1
    28    32    30    1
    29    26    27    1
    30    26    28    1
    31    30    31    1
    32    30    33    1
    33    36    33    1
    34    33    35    1
    35    33    34    1
