@<TRIPOS>MOLECULE
1,2
 24 23 0 0 0
SMALL
GASTEIGER

@<TRIPOS>ATOM
      1 P          15.4438   -0.5798   11.3486 P.3     1  UNL1       -0.1119
      2 P          13.8666    1.6770    9.7264 P.3     1  UNL1       -0.1119
      3 C          14.1927    3.4160    9.2417 C.3     1  UNL1       -0.0445
      4 C          12.6393    1.2501    8.4126 C.3     1  UNL1       -0.0445
      5 C          15.3643    0.8796    8.9699 C.3     1  UNL1       -0.0288
      6 C          15.4537   -0.5459    9.4783 C.3     1  UNL1       -0.0288
      7 C          17.2453   -0.3318   11.6275 C.3     1  UNL1       -0.0445
      8 C          15.4225   -2.4232   11.4868 C.3     1  UNL1       -0.0445
      9 H          15.0269    3.7780    9.8406 H       1  UNL1        0.0277
     10 H          14.4242    3.4941    8.1789 H       1  UNL1        0.0277
     11 H          13.3147    4.0179    9.4704 H       1  UNL1        0.0277
     12 H          11.7028    1.7696    8.5970 H       1  UNL1        0.0277
     13 H          13.0310    1.5610    7.4443 H       1  UNL1        0.0277
     14 H          12.4583    0.1780    8.3979 H       1  UNL1        0.0277
     15 H          15.3071    0.9086    7.8770 H       1  UNL1        0.0316
     16 H          16.2392    1.4522    9.2955 H       1  UNL1        0.0316
     17 H          16.3514   -1.0487    9.1032 H       1  UNL1        0.0316
     18 H          14.5798   -1.1107    9.1352 H       1  UNL1        0.0316
     19 H          17.4678   -0.5167   12.6762 H       1  UNL1        0.0277
     20 H          17.8327   -1.0080   11.0053 H       1  UNL1        0.0277
     21 H          17.5045    0.7028   11.4073 H       1  UNL1        0.0277
     22 H          14.4716   -2.8257   11.1441 H       1  UNL1        0.0277
     23 H          16.2185   -2.8291   10.8623 H       1  UNL1        0.0277
     24 H          15.5917   -2.7284   12.5161 H       1  UNL1        0.0277
@<TRIPOS>BOND
     1    13     4    1
     2    15     5    1
     3    10     3    1
     4    14     4    1
     5     4    12    1
     6     4     2    1
     7     5    16    1
     8     5     6    1
     9     5     2    1
    10    17     6    1
    11    18     6    1
    12     3    11    1
    13     3     2    1
    14     3     9    1
    15     6     1    1
    16    23     8    1
    17    20     7    1
    18    22     8    1
    19     1     8    1
    20     1     7    1
    21    21     7    1
    22     8    24    1
    23     7    19    1
