@<TRIPOS>MOLECULE
1,2
 24 23 0 0 0
SMALL
GASTEIGER

@<TRIPOS>ATOM
      1 P           8.7523    1.5430    2.5229 P.3     1  UNL1       -0.1119
      2 P          10.6290   -0.4300    3.9317 P.3     1  UNL1       -0.1119
      3 C          12.2880   -0.3385    4.7069 C.3     1  UNL1       -0.0445
      4 C          10.5467   -2.2447    3.6011 C.3     1  UNL1       -0.0445
      5 C          11.0431    0.1117    2.2057 C.3     1  UNL1       -0.0288
      6 C           9.7148    0.3390    1.5059 C.3     1  UNL1       -0.0288
      7 C           9.5985    3.0824    1.9447 C.3     1  UNL1       -0.0445
      8 C           7.2470    1.6770    1.4569 C.3     1  UNL1       -0.0445
      9 H          12.2330   -0.7956    5.6930 H       1  UNL1        0.0277
     10 H          13.0284   -0.8580    4.0979 H       1  UNL1        0.0277
     11 H          12.5710    0.7075    4.8137 H       1  UNL1        0.0277
     12 H           9.6701   -2.4545    2.9886 H       1  UNL1        0.0277
     13 H          11.4482   -2.5655    3.0787 H       1  UNL1        0.0277
     14 H          10.4542   -2.7866    4.5383 H       1  UNL1        0.0277
     15 H          11.6059    1.0476    2.2575 H       1  UNL1        0.0316
     16 H          11.6584   -0.6286    1.6851 H       1  UNL1        0.0316
     17 H           9.1407   -0.5913    1.4684 H       1  UNL1        0.0316
     18 H           9.8393    0.7159    0.4851 H       1  UNL1        0.0316
     19 H          10.5604    3.1837    2.4407 H       1  UNL1        0.0277
     20 H           9.7514    3.0282    0.8663 H       1  UNL1        0.0277
     21 H           8.9893    3.9532    2.1679 H       1  UNL1        0.0277
     22 H           6.5507    2.3895    1.8965 H       1  UNL1        0.0277
     23 H           7.5084    2.0054    0.4513 H       1  UNL1        0.0277
     24 H           6.7573    0.7075    1.4126 H       1  UNL1        0.0277
@<TRIPOS>BOND
     1    23     8    1
     2    18     6    1
     3    20     7    1
     4    24     8    1
     5     8    22    1
     6     8     1    1
     7    17     6    1
     8     6     5    1
     9     6     1    1
    10    16     5    1
    11     7    21    1
    12     7    19    1
    13     7     1    1
    14     5    15    1
    15     5     2    1
    16    12     4    1
    17    13     4    1
    18     4     2    1
    19     4    14    1
    20     2     3    1
    21    10     3    1
    22     3    11    1
    23     3     9    1
