@<TRIPOS>MOLECULE
1,2
 24 23 0 0 0
SMALL
GASTEIGER

@<TRIPOS>ATOM
      1 P           0.4505    3.1185    7.4912 P.3     1  UNL1       -0.1119
      2 P           1.7272    1.9696    5.0211 P.3     1  UNL1       -0.1119
      3 C           1.2206    2.4137    3.3128 C.3     1  UNL1       -0.0445
      4 H           2.0962    2.6573    2.7135 H       1  UNL1        0.0277
      5 H           0.5731    3.2898    3.3561 H       1  UNL1        0.0277
      6 H           0.6880    1.5759    2.8575 H       1  UNL1        0.0277
      7 C          -0.0666    1.3949    7.0621 C.3     1  UNL1       -0.0288
      8 H           0.5811    0.6937    7.5942 H       1  UNL1        0.0316
      9 H          -1.1002    1.2180    7.3810 H       1  UNL1        0.0316
     10 C           2.5990    0.4027    4.5605 C.3     1  UNL1       -0.0445
     11 H           1.9605   -0.1826    3.8964 H       1  UNL1        0.0277
     12 H           2.8441   -0.1923    5.4378 H       1  UNL1        0.0277
     13 H           3.5237    0.6448    4.0344 H       1  UNL1        0.0277
     14 C           0.2676    3.0379    9.3134 C.3     1  UNL1       -0.0445
     15 H           1.0163    2.3619    9.7275 H       1  UNL1        0.0277
     16 H          -0.7318    2.6856    9.5743 H       1  UNL1        0.0277
     17 H           0.4250    4.0372    9.7211 H       1  UNL1        0.0277
     18 C          -1.1111    4.0002    7.1029 C.3     1  UNL1       -0.0445
     19 H          -1.0902    4.9592    7.6187 H       1  UNL1        0.0277
     20 H          -1.9730    3.4192    7.4358 H       1  UNL1        0.0277
     21 H          -1.1672    4.1827    6.0295 H       1  UNL1        0.0277
     22 C           0.0962    1.2569    5.5612 C.3     1  UNL1       -0.0288
     23 H          -0.6692    1.8629    5.0620 H       1  UNL1        0.0316
     24 H           0.0020    0.2198    5.2215 H       1  UNL1        0.0316
@<TRIPOS>BOND
     1     4     3    1
     2     6     3    1
     3     3     5    1
     4     3     2    1
     5    11    10    1
     6    13    10    1
     7    10     2    1
     8    10    12    1
     9     2    22    1
    10    23    22    1
    11    24    22    1
    12    22     7    1
    13    21    18    1
    14     7     9    1
    15     7     1    1
    16     7     8    1
    17    18    20    1
    18    18     1    1
    19    18    19    1
    20     1    14    1
    21    14    16    1
    22    14    17    1
    23    14    15    1
