@<TRIPOS>MOLECULE
1,2
 24 23 0 0 0
SMALL
GASTEIGER

@<TRIPOS>ATOM
      1 P           3.4739    2.1022    7.6380 P.3     1  UNL1       -0.1119
      2 P           4.2420    4.0375    5.4520 P.3     1  UNL1       -0.1119
      3 C           5.6185    3.0602    6.2278 C.3     1  UNL1       -0.0288
      4 H           6.4294    2.9025    5.5088 H       1  UNL1        0.0316
      5 H           5.9978    3.6735    7.0530 H       1  UNL1        0.0316
      6 C           4.5485    3.6912    3.6728 C.3     1  UNL1       -0.0445
      7 H           4.3608    2.6406    3.4534 H       1  UNL1        0.0277
      8 H           5.5765    3.9439    3.4083 H       1  UNL1        0.0277
      9 H           3.8582    4.3082    3.0958 H       1  UNL1        0.0277
     10 C           4.1526    2.6979    9.2367 C.3     1  UNL1       -0.0445
     11 H           4.7432    3.5976    9.0611 H       1  UNL1        0.0277
     12 H           4.7701    1.9289    9.7055 H       1  UNL1        0.0277
     13 H           3.3236    2.9606    9.8956 H       1  UNL1        0.0277
     14 C           3.1067    0.3864    8.2258 C.3     1  UNL1       -0.0445
     15 H           2.4305    0.4513    9.0805 H       1  UNL1        0.0277
     16 H           4.0367   -0.0880    8.5452 H       1  UNL1        0.0277
     17 H           2.6397   -0.2276    7.4579 H       1  UNL1        0.0277
     18 C           5.0685    1.7525    6.7649 C.3     1  UNL1       -0.0288
     19 H           5.7656    1.2678    7.4591 H       1  UNL1        0.0316
     20 H           4.8598    1.0606    5.9433 H       1  UNL1        0.0316
     21 C           5.0346    5.6896    5.5023 C.3     1  UNL1       -0.0445
     22 H           4.4520    6.3669    4.8784 H       1  UNL1        0.0277
     23 H           6.0602    5.6260    5.1345 H       1  UNL1        0.0277
     24 H           5.0223    6.0598    6.5268 H       1  UNL1        0.0277
@<TRIPOS>BOND
     1     9     6    1
     2     8     6    1
     3     7     6    1
     4     6     2    1
     5    22    21    1
     6    23    21    1
     7     2    21    1
     8     2     3    1
     9    21    24    1
    10     4     3    1
    11    20    18    1
    12     3    18    1
    13     3     5    1
    14    18    19    1
    15    18     1    1
    16    17    14    1
    17     1    14    1
    18     1    10    1
    19    14    16    1
    20    14    15    1
    21    11    10    1
    22    10    12    1
    23    10    13    1
