@<TRIPOS>MOLECULE
1,2
 24 23 0 0 0
SMALL
GASTEIGER

@<TRIPOS>ATOM
      1 P           2.7414    3.0336   -2.0099 P.3     1  UNL1       -0.1119
      2 P           1.8294    2.5217    0.9935 P.3     1  UNL1       -0.1119
      3 C           3.2102    4.3154   -3.2462 C.3     1  UNL1       -0.0445
      4 C           1.9971    1.7891   -3.1322 C.3     1  UNL1       -0.0445
      5 C           1.1933    3.8325   -1.3605 C.3     1  UNL1       -0.0288
      6 C           1.4319    3.8338    2.2209 C.3     1  UNL1       -0.0445
      7 C           1.0099    1.0685    1.7447 C.3     1  UNL1       -0.0445
      8 C           0.5677    2.9208   -0.3184 C.3     1  UNL1       -0.0288
      9 H           3.6136    5.1821   -2.7262 H       1  UNL1        0.0277
     10 H           2.3406    4.6095   -3.8350 H       1  UNL1        0.0277
     11 H           3.9737    3.9066   -3.9075 H       1  UNL1        0.0277
     12 H           1.7077    0.9160   -2.5531 H       1  UNL1        0.0277
     13 H           2.7517    1.4804   -3.8515 H       1  UNL1        0.0277
     14 H           1.1364    2.2014   -3.6599 H       1  UNL1        0.0277
     15 H           0.5052    4.0274   -2.1909 H       1  UNL1        0.0316
     16 H           1.4811    4.7878   -0.9109 H       1  UNL1        0.0316
     17 H           0.3596    3.8855    2.4131 H       1  UNL1        0.0277
     18 H           1.9622    3.6124    3.1467 H       1  UNL1        0.0277
     19 H           1.7884    4.7891    1.8366 H       1  UNL1        0.0277
     20 H           1.4341    0.8807    2.7283 H       1  UNL1        0.0277
     21 H           1.2079    0.2064    1.1099 H       1  UNL1        0.0277
     22 H          -0.0644    1.2370    1.8304 H       1  UNL1        0.0277
     23 H          -0.3236    3.3712    0.1324 H       1  UNL1        0.0316
     24 H           0.2894    1.9689   -0.7826 H       1  UNL1        0.0316
@<TRIPOS>BOND
     1    11     3    1
     2    13     4    1
     3    10     3    1
     4    14     4    1
     5     3     9    1
     6     3     1    1
     7     4    12    1
     8     4     1    1
     9    15     5    1
    10     1     5    1
    11     5    16    1
    12     5     8    1
    13    24     8    1
    14     8    23    1
    15     8     2    1
    16     2     7    1
    17     2     6    1
    18    21     7    1
    19     7    22    1
    20     7    20    1
    21    19     6    1
    22     6    17    1
    23     6    18    1
