@<TRIPOS>MOLECULE
1,2
 24 23 0 0 0
SMALL
GASTEIGER

@<TRIPOS>ATOM
      1 P           5.5018    3.0335    2.0100 P.3     1  UNL1       -0.1119
      2 P           6.4140    2.5217   -0.9935 P.3     1  UNL1       -0.1119
      3 C           5.0324    4.3148    3.2465 C.3     1  UNL1       -0.0445
      4 C           6.2463    1.7888    3.1319 C.3     1  UNL1       -0.0445
      5 C           7.0496    3.8329    1.3607 C.3     1  UNL1       -0.0288
      6 C           6.8110    3.8332   -2.2215 C.3     1  UNL1       -0.0445
      7 C           7.2337    1.0681   -1.7439 C.3     1  UNL1       -0.0445
      8 C           7.6755    2.9215    0.3184 C.3     1  UNL1       -0.0288
      9 H           4.6282    5.1812    2.7266 H       1  UNL1        0.0277
     10 H           5.9019    4.6096    3.8350 H       1  UNL1        0.0277
     11 H           4.2694    3.9054    3.9080 H       1  UNL1        0.0277
     12 H           6.5353    0.9155    2.5527 H       1  UNL1        0.0277
     13 H           5.4920    1.4804    3.8517 H       1  UNL1        0.0277
     14 H           7.1075    2.2010    3.6592 H       1  UNL1        0.0277
     15 H           7.7377    4.0278    2.1910 H       1  UNL1        0.0316
     16 H           6.7616    4.7881    0.9111 H       1  UNL1        0.0316
     17 H           8.5665    3.3723   -0.1325 H       1  UNL1        0.0316
     18 H           7.9543    1.9697    0.7825 H       1  UNL1        0.0316
     19 H           7.8833    3.8850   -2.4138 H       1  UNL1        0.0277
     20 H           6.2808    3.6114   -3.1471 H       1  UNL1        0.0277
     21 H           6.4545    4.7888   -1.8375 H       1  UNL1        0.0277
     22 H           6.8088    0.8792   -2.7270 H       1  UNL1        0.0277
     23 H           7.0368    0.2066   -1.1082 H       1  UNL1        0.0277
     24 H           8.3079    1.2373   -1.8306 H       1  UNL1        0.0277
@<TRIPOS>BOND
     1    20     6    1
     2    22     7    1
     3    19     6    1
     4     6    21    1
     5     6     2    1
     6    24     7    1
     7     7    23    1
     8     7     2    1
     9     2     8    1
    10    17     8    1
    11     8    18    1
    12     8     5    1
    13    16     5    1
    14     5     1    1
    15     5    15    1
    16     1     4    1
    17     1     3    1
    18    12     4    1
    19     9     3    1
    20     4    14    1
    21     4    13    1
    22     3    10    1
    23     3    11    1
