@<TRIPOS>MOLECULE
1,2
 24 23 0 0 0
SMALL
GASTEIGER

@<TRIPOS>ATOM
      1 P           1.3850    0.9384   16.1285 P.3     1  UNL1       -0.1119
      2 P           0.4581   -1.6092   14.5641 P.3     1  UNL1       -0.1119
      3 C           2.5907    2.2570   16.5197 C.3     1  UNL1       -0.0445
      4 C           0.5614    0.7815   17.7725 C.3     1  UNL1       -0.0445
      5 C           2.4213   -0.6000   16.2130 C.3     1  UNL1       -0.0288
      6 C          -0.9757   -2.6726   15.0025 C.3     1  UNL1       -0.0445
      7 C           1.3553   -2.6822   13.3827 C.3     1  UNL1       -0.0445
      8 C           1.4997   -1.8076   16.0966 C.3     1  UNL1       -0.0288
      9 H           3.0935   -0.5755   15.3571 H       1  UNL1        0.0316
     10 H           3.0115   -0.6309   17.1341 H       1  UNL1        0.0316
     11 H           3.1349    2.0351   17.4376 H       1  UNL1        0.0277
     12 H           3.2780    2.3563   15.6851 H       1  UNL1        0.0277
     13 H           2.0259    3.1798   16.6362 H       1  UNL1        0.0277
     14 H           0.2338    1.7659   18.0962 H       1  UNL1        0.0277
     15 H          -0.3131    0.1387   17.6974 H       1  UNL1        0.0277
     16 H           1.2653    0.3670   18.4958 H       1  UNL1        0.0277
     17 H           0.8301   -1.8612   16.9586 H       1  UNL1        0.0316
     18 H           2.0678   -2.7416   16.0378 H       1  UNL1        0.0316
     19 H          -1.6131   -2.1178   15.6874 H       1  UNL1        0.0277
     20 H          -1.5390   -2.8861   14.0962 H       1  UNL1        0.0277
     21 H          -0.6497   -3.6046   15.4647 H       1  UNL1        0.0277
     22 H           0.8226   -2.6649   12.4354 H       1  UNL1        0.0277
     23 H           2.3438   -2.2603   13.2262 H       1  UNL1        0.0277
     24 H           1.4293   -3.7020   13.7575 H       1  UNL1        0.0277
@<TRIPOS>BOND
     1    22     7    1
     2    23     7    1
     3     7    24    1
     4     7     2    1
     5    20     6    1
     6     2     6    1
     7     2     8    1
     8     6    21    1
     9     6    19    1
    10     9     5    1
    11    12     3    1
    12    18     8    1
    13     8     5    1
    14     8    17    1
    15     1     5    1
    16     1     3    1
    17     1     4    1
    18     5    10    1
    19     3    13    1
    20     3    11    1
    21    15     4    1
    22     4    14    1
    23     4    16    1
