@<TRIPOS>MOLECULE
1,2
 24 23 0 0 0
SMALL
GASTEIGER

@<TRIPOS>ATOM
      1 P          -1.7750    0.5835   12.3058 P.3     1  UNL1       -0.1119
      2 P           0.0985    3.1210   12.8614 P.3     1  UNL1       -0.1119
      3 C          -3.5835    0.5939   12.6681 C.3     1  UNL1       -0.0445
      4 C          -1.7409   -0.8954   11.2171 C.3     1  UNL1       -0.0445
      5 C          -1.6059    1.9069   11.0243 C.3     1  UNL1       -0.0288
      6 C          -0.0450    4.7414   13.7176 C.3     1  UNL1       -0.0445
      7 C           1.5016    3.5017   11.7390 C.3     1  UNL1       -0.0445
      8 C          -1.3053    3.2638   11.6453 C.3     1  UNL1       -0.0288
      9 H          -0.7608    1.5870   10.4093 H       1  UNL1        0.0316
     10 H          -2.5085    1.9425   10.4051 H       1  UNL1        0.0316
     11 H          -3.8798    1.5644   13.0540 H       1  UNL1        0.0277
     12 H          -4.1442    0.3592   11.7629 H       1  UNL1        0.0277
     13 H          -3.7878   -0.1578   13.4296 H       1  UNL1        0.0277
     14 H          -2.4295   -0.7780   10.3815 H       1  UNL1        0.0277
     15 H          -0.7300   -1.0260   10.8476 H       1  UNL1        0.0277
     16 H          -2.0253   -1.7679   11.8020 H       1  UNL1        0.0277
     17 H          -2.1743    3.6341   12.1904 H       1  UNL1        0.0316
     18 H          -1.0281    3.9922   10.8750 H       1  UNL1        0.0316
     19 H           0.8627    4.9025   14.2976 H       1  UNL1        0.0277
     20 H          -0.1675    5.5437   12.9887 H       1  UNL1        0.0277
     21 H          -0.8937    4.7178   14.3954 H       1  UNL1        0.0277
     22 H           2.4233    3.4733   12.3118 H       1  UNL1        0.0277
     23 H           1.5518    2.7327   10.9744 H       1  UNL1        0.0277
     24 H           1.3805    4.4822   11.2797 H       1  UNL1        0.0277
@<TRIPOS>BOND
     1    14     4    1
     2    10     5    1
     3     9     5    1
     4    15     4    1
     5    18     8    1
     6    23     7    1
     7     5     8    1
     8     5     1    1
     9     4    16    1
    10     4     1    1
    11    24     7    1
    12     8    17    1
    13     8     2    1
    14     7    22    1
    15     7     2    1
    16    12     3    1
    17     1     3    1
    18     3    11    1
    19     3    13    1
    20     2     6    1
    21    20     6    1
    22     6    19    1
    23     6    21    1
