@<TRIPOS>MOLECULE
1,2
 52 55 0 0 0
SMALL
GASTEIGER

@<TRIPOS>ATOM
      1 P          10.3439    3.4537   16.2673 P.3     1  UNL1       -0.0435
      2 P          12.2014    5.8469   16.2029 P.3     1  UNL1       -0.0435
      3 C          10.8062    1.7779   16.8168 C.ar    1  UNL1       -0.0189
      4 C          11.7608    1.0568   16.1103 C.ar    1  UNL1       -0.0538
      5 C          12.1467   -0.2000   16.5424 C.ar    1  UNL1       -0.0612
      6 C          11.5798   -0.7425   17.6830 C.ar    1  UNL1       -0.0617
      7 C          10.6242   -0.0280   18.3903 C.ar    1  UNL1       -0.0612
      8 C          10.2376    1.2277   17.9625 C.ar    1  UNL1       -0.0538
      9 C           8.5226    3.3086   16.2520 C.ar    1  UNL1       -0.0189
     10 C           7.8860    2.1143   15.9268 C.ar    1  UNL1       -0.0538
     11 C           6.5060    2.0469   15.8906 C.ar    1  UNL1       -0.0612
     12 C           5.7451    3.1674   16.1773 C.ar    1  UNL1       -0.0617
     13 C           6.3709    4.3652   16.4789 C.ar    1  UNL1       -0.0612
     14 C           7.7506    4.4400   16.5028 C.ar    1  UNL1       -0.0538
     15 C          10.5939    4.3832   17.8615 C.3     1  UNL1       -0.0199
     16 C          10.9472    5.8306   17.5633 C.3     1  UNL1       -0.0199
     17 C          13.5306    5.1519   17.2451 C.ar    1  UNL1       -0.0189
     18 C          13.7207    3.7774   17.2214 C.ar    1  UNL1       -0.0538
     19 C          14.6089    3.1677   18.0879 C.ar    1  UNL1       -0.0612
     20 C          15.3230    3.9348   18.9924 C.ar    1  UNL1       -0.0617
     21 C          15.1309    5.3062   19.0324 C.ar    1  UNL1       -0.0612
     22 C          14.2320    5.9134   18.1744 C.ar    1  UNL1       -0.0538
     23 C          12.6677    7.6044   16.1469 C.ar    1  UNL1       -0.0189
     24 C          11.7588    8.6318   16.3834 C.ar    1  UNL1       -0.0538
     25 C          12.1658    9.9523   16.3170 C.ar    1  UNL1       -0.0612
     26 C          13.4832   10.2652   16.0329 C.ar    1  UNL1       -0.0617
     27 C          14.3932    9.2486   15.7964 C.ar    1  UNL1       -0.0612
     28 C          13.9875    7.9286   15.8373 C.ar    1  UNL1       -0.0538
     29 H          12.2023    1.4799   15.2154 H       1  UNL1        0.0624
     30 H          12.8924   -0.7471   15.9845 H       1  UNL1        0.0618
     31 H          11.8792   -1.7229   18.0234 H       1  UNL1        0.0618
     32 H          10.1798   -0.4534   19.2785 H       1  UNL1        0.0618
     33 H           9.4857    1.7815   18.5084 H       1  UNL1        0.0624
     34 H           8.4695    1.2266   15.7212 H       1  UNL1        0.0624
     35 H           6.0226    1.1131   15.6423 H       1  UNL1        0.0618
     36 H           4.6670    3.1083   16.1593 H       1  UNL1        0.0618
     37 H           5.7820    5.2455   16.6924 H       1  UNL1        0.0618
     38 H           8.2317    5.3859   16.7113 H       1  UNL1        0.0624
     39 H           9.6953    4.3086   18.4844 H       1  UNL1        0.0323
     40 H          11.4242    3.8979   18.3876 H       1  UNL1        0.0323
     41 H          11.3584    6.3331   18.4467 H       1  UNL1        0.0323
     42 H          10.0671    6.3804   17.2194 H       1  UNL1        0.0323
     43 H          13.1669    3.1856   16.5032 H       1  UNL1        0.0624
     44 H          14.7398    2.0951   18.0553 H       1  UNL1        0.0618
     45 H          16.0249    3.4666   19.6670 H       1  UNL1        0.0618
     46 H          15.6814    5.9072   19.7421 H       1  UNL1        0.0618
     47 H          14.0824    6.9829   18.2254 H       1  UNL1        0.0624
     48 H          10.7276    8.4125   16.6156 H       1  UNL1        0.0624
     49 H          11.4489   10.7409   16.4968 H       1  UNL1        0.0618
     50 H          13.7991   11.2978   15.9956 H       1  UNL1        0.0618
     51 H          15.4249    9.4842   15.5785 H       1  UNL1        0.0618
     52 H          14.6958    7.1369   15.6416 H       1  UNL1        0.0624
@<TRIPOS>BOND
     1    29     4    1
     2    51    27    1
     3    52    28    1
     4    35    11    1
     5    34    10    1
     6    27    28   ar
     7    27    26   ar
     8    28    23   ar
     9    11    10   ar
    10    11    12   ar
    11    10     9   ar
    12    30     5    1
    13    50    26    1
    14    26    25   ar
    15     4     5   ar
    16     4     3   ar
    17    23     2    1
    18    23    24   ar
    19    36    12    1
    20    12    13   ar
    21     2    17    1
    22     2    16    1
    23     9     1    1
    24     9    14   ar
    25     1     3    1
    26     1    15    1
    27    25    24   ar
    28    25    49    1
    29    24    48    1
    30    13    14   ar
    31    13    37    1
    32    14    38    1
    33    43    18    1
    34     5     6   ar
    35     3     8   ar
    36    42    16    1
    37    18    17   ar
    38    18    19   ar
    39    17    22   ar
    40    16    15    1
    41    16    41    1
    42     6    31    1
    43     6     7   ar
    44    15    40    1
    45    15    39    1
    46     8     7   ar
    47     8    33    1
    48    44    19    1
    49    19    20   ar
    50    22    47    1
    51    22    21   ar
    52     7    32    1
    53    20    21   ar
    54    20    45    1
    55    21    46    1
