@<TRIPOS>MOLECULE
1,2
 21 20 0 0 0
SMALL
GASTEIGER

@<TRIPOS>ATOM
      1 P           7.0128    7.7265   25.5565 P.3     1  UNL1       -0.1079
      2 P           7.0035    5.9731   23.3912 P.3     1  UNL1       -0.1079
      3 C           8.1348    7.2016   24.1878 C.3     1  UNL1       -0.0126
      4 H           9.0742    6.7652   24.5369 H       1  UNL1        0.0361
      5 H           8.3339    8.0364   23.5093 H       1  UNL1        0.0361
      6 C           8.0138    7.2575   27.0205 C.3     1  UNL1       -0.0442
      7 H           8.9285    7.8520   27.0133 H       1  UNL1        0.0278
      8 H           8.2741    6.2031   26.9795 H       1  UNL1        0.0278
      9 H           7.4686    7.4552   27.9420 H       1  UNL1        0.0278
     10 C           7.2683    9.5366   25.6180 C.3     1  UNL1       -0.0442
     11 H           8.3457    9.7109   25.5937 H       1  UNL1        0.0278
     12 H           6.8643    9.9521   26.5408 H       1  UNL1        0.0278
     13 H           6.8060   10.0205   24.7606 H       1  UNL1        0.0278
     14 C           7.9703    4.4349   23.6451 C.3     1  UNL1       -0.0442
     15 H           8.9694    4.5800   23.2311 H       1  UNL1        0.0278
     16 H           7.4935    3.6016   23.1312 H       1  UNL1        0.0278
     17 H           8.0490    4.2064   24.7062 H       1  UNL1        0.0278
     18 C           7.3544    6.2134   21.6130 C.3     1  UNL1       -0.0442
     19 H           8.4361    6.3220   21.5132 H       1  UNL1        0.0278
     20 H           6.8652    7.1084   21.2356 H       1  UNL1        0.0278
     21 H           7.0312    5.3440   21.0430 H       1  UNL1        0.0278
@<TRIPOS>BOND
     1    21    18    1
     2    20    18    1
     3    19    18    1
     4    18     2    1
     5    16    14    1
     6    15    14    1
     7     2    14    1
     8     2     3    1
     9     5     3    1
    10    14    17    1
    11     3     4    1
    12     3     1    1
    13    13    10    1
    14     1    10    1
    15     1     6    1
    16    11    10    1
    17    10    12    1
    18     8     6    1
    19     7     6    1
    20     6     9    1
