@<TRIPOS>MOLECULE
1,2
 24 23 0 0 0
SMALL
GASTEIGER

@<TRIPOS>ATOM
      1 P          14.6050    9.6381    7.6106 P.3     1  UNL1       -0.1119
      2 P          14.7683   12.4404    8.0750 P.3     1  UNL1       -0.1119
      3 C          13.0714   10.3723    8.3162 C.3     1  UNL1       -0.0288
      4 H          12.4606   10.7174    7.4735 H       1  UNL1        0.0316
      5 H          12.5018    9.6344    8.8926 H       1  UNL1        0.0316
      6 C          13.5470   11.5464    9.1409 C.3     1  UNL1       -0.0288
      7 H          14.0616   11.1953   10.0406 H       1  UNL1        0.0316
      8 H          12.7341   12.2160    9.4417 H       1  UNL1        0.0316
      9 C          15.5481   13.3980    9.4462 C.3     1  UNL1       -0.0445
     10 H          14.7686   13.8064   10.0927 H       1  UNL1        0.0277
     11 H          16.1779   14.2065    9.0804 H       1  UNL1        0.0277
     12 H          16.1682   12.7020   10.0154 H       1  UNL1        0.0277
     13 C          13.5697   13.6990    7.4481 C.3     1  UNL1       -0.0445
     14 H          13.2106   14.3389    8.2560 H       1  UNL1        0.0277
     15 H          12.7370   13.1315    7.0257 H       1  UNL1        0.0277
     16 H          13.9973   14.3037    6.6552 H       1  UNL1        0.0277
     17 C          13.8083    8.0949    6.9787 C.3     1  UNL1       -0.0445
     18 H          13.5748    7.4533    7.8304 H       1  UNL1        0.0277
     19 H          14.4376    7.5501    6.2783 H       1  UNL1        0.0277
     20 H          12.8822    8.3758    6.4774 H       1  UNL1        0.0277
     21 C          15.3045    8.9742    9.1787 C.3     1  UNL1       -0.0445
     22 H          14.4992    8.6543    9.8436 H       1  UNL1        0.0277
     23 H          15.8930    9.7659    9.6441 H       1  UNL1        0.0277
     24 H          15.9563    8.1255    8.9755 H       1  UNL1        0.0277
@<TRIPOS>BOND
     1    19    17    1
     2    20    17    1
     3    16    13    1
     4    17     1    1
     5    17    18    1
     6    15    13    1
     7    13     2    1
     8    13    14    1
     9     4     3    1
    10     1     3    1
    11     1    21    1
    12     2     6    1
    13     2     9    1
    14     3     5    1
    15     3     6    1
    16    24    21    1
    17    11     9    1
    18     6     8    1
    19     6     7    1
    20    21    23    1
    21    21    22    1
    22     9    12    1
    23     9    10    1
