@<TRIPOS>MOLECULE
1,2
 90 96 0 0 0
SMALL
GASTEIGER

@<TRIPOS>ATOM
      1 P           4.8752    1.8046    6.0790 P.3     1  UNL1        0.0000
      2 P           1.8960    1.0817    4.7013 P.3     1  UNL1        0.0000
      3 P           3.3211    4.0279    4.9047 P.3     1  UNL1        0.0000
      4 B           4.3056    1.8912    3.2097 B       1  UNL1        0.0000
      5 C           4.9371    1.5551    1.7567 C.ar    1  UNL1        0.0000
      6 C           4.5498    2.2885    0.6340 C.ar    1  UNL1        0.0000
      7 H           3.8472    3.1038    0.7508 H       1  UNL1        0.0000
      8 C           5.0240    2.0053   -0.6333 C.ar    1  UNL1        0.0000
      9 H           4.7012    2.6012   -1.4771 H       1  UNL1        0.0000
     10 C           5.9085    0.9581   -0.8259 C.ar    1  UNL1        0.0000
     11 H           6.2845    0.7320   -1.8142 H       1  UNL1        0.0000
     12 C           6.2976    0.2001    0.2633 C.ar    1  UNL1        0.0000
     13 H           6.9802   -0.6290    0.1281 H       1  UNL1        0.0000
     14 C           5.8147    0.4968    1.5265 C.ar    1  UNL1        0.0000
     15 H           6.1330   -0.1253    2.3526 H       1  UNL1        0.0000
     16 C           2.1191   -0.7273    4.9215 C.ar    1  UNL1        0.0000
     17 C           2.8891   -1.5392    4.0975 C.ar    1  UNL1        0.0000
     18 H           3.4102   -1.1229    3.2478 H       1  UNL1        0.0000
     19 C           2.9999   -2.8945    4.3618 C.ar    1  UNL1        0.0000
     20 H           3.6089   -3.5139    3.7191 H       1  UNL1        0.0000
     21 C           2.3374   -3.4561    5.4388 C.ar    1  UNL1        0.0000
     22 H           2.4308   -4.5126    5.6428 H       1  UNL1        0.0000
     23 C           1.5468   -2.6579    6.2513 C.ar    1  UNL1        0.0000
     24 H           1.0165   -3.0923    7.0868 H       1  UNL1        0.0000
     25 C           1.4402   -1.3060    5.9921 C.ar    1  UNL1        0.0000
     26 H           0.8237   -0.6753    6.6238 H       1  UNL1        0.0000
     27 C           0.1159    0.9143    4.2530 C.ar    1  UNL1        0.0000
     28 C          -0.2334    0.1042    3.1757 C.ar    1  UNL1        0.0000
     29 H           0.5368   -0.4047    2.6134 H       1  UNL1        0.0000
     30 C          -1.5588   -0.0619    2.8239 C.ar    1  UNL1        0.0000
     31 H          -1.8158   -0.6911    1.9839 H       1  UNL1        0.0000
     32 C          -2.5579    0.5709    3.5471 C.ar    1  UNL1        0.0000
     33 H          -3.5936    0.4380    3.2707 H       1  UNL1        0.0000
     34 C          -2.2214    1.3688    4.6261 C.ar    1  UNL1        0.0000
     35 H          -2.9901    1.8625    5.2036 H       1  UNL1        0.0000
     36 C          -0.8929    1.5377    4.9752 C.ar    1  UNL1        0.0000
     37 H          -0.6438    2.1640    5.8207 H       1  UNL1        0.0000
     38 C           2.0150    4.9105    3.9613 C.ar    1  UNL1        0.0000
     39 C           2.3462    6.0938    3.3044 C.ar    1  UNL1        0.0000
     40 H           3.3440    6.5008    3.3962 H       1  UNL1        0.0000
     41 C           1.4059    6.7559    2.5389 C.ar    1  UNL1        0.0000
     42 H           1.6742    7.6753    2.0386 H       1  UNL1        0.0000
     43 C           0.1242    6.2441    2.4085 C.ar    1  UNL1        0.0000
     44 H          -0.6075    6.7628    1.8067 H       1  UNL1        0.0000
     45 C          -0.2101    5.0652    3.0505 C.ar    1  UNL1        0.0000
     46 H          -1.2032    4.6504    2.9521 H       1  UNL1        0.0000
     47 C           0.7308    4.4071    3.8229 C.ar    1  UNL1        0.0000
     48 H           0.4599    3.4868    4.3201 H       1  UNL1        0.0000
     49 C           4.0872    5.5092    5.6610 C.ar    1  UNL1        0.0000
     50 C           5.2384    6.1227    5.1829 C.ar    1  UNL1        0.0000
     51 H           5.7625    5.7222    4.3272 H       1  UNL1        0.0000
     52 C           5.7338    7.2559    5.8038 C.ar    1  UNL1        0.0000
     53 H           6.6352    7.7186    5.4282 H       1  UNL1        0.0000
     54 C           5.0805    7.7959    6.8974 C.ar    1  UNL1        0.0000
     55 H           5.4738    8.6775    7.3822 H       1  UNL1        0.0000
     56 C           3.9169    7.2054    7.3635 C.ar    1  UNL1        0.0000
     57 H           3.3958    7.6301    8.2095 H       1  UNL1        0.0000
     58 C           3.4231    6.0727    6.7467 C.ar    1  UNL1        0.0000
     59 H           2.5177    5.6014    7.1101 H       1  UNL1        0.0000
     60 C           5.6280    0.4976    7.1272 C.ar    1  UNL1        0.0000
     61 C           6.8403    0.6473    7.7917 C.ar    1  UNL1        0.0000
     62 H           7.3757    1.5844    7.7504 H       1  UNL1        0.0000
     63 C           7.3738   -0.4028    8.5201 C.ar    1  UNL1        0.0000
     64 H           8.3140   -0.2679    9.0353 H       1  UNL1        0.0000
     65 C           6.7145   -1.6171    8.5887 C.ar    1  UNL1        0.0000
     66 H           7.1357   -2.4333    9.1570 H       1  UNL1        0.0000
     67 C           5.5101   -1.7787    7.9229 C.ar    1  UNL1        0.0000
     68 H           4.9858   -2.7228    7.9639 H       1  UNL1        0.0000
     69 C           4.9739   -0.7302    7.2024 C.ar    1  UNL1        0.0000
     70 H           4.0280   -0.8680    6.6946 H       1  UNL1        0.0000
     71 C           6.1425    3.1066    6.3223 C.ar    1  UNL1        0.0000
     72 C           7.2184    3.3029    5.4624 C.ar    1  UNL1        0.0000
     73 H           7.3225    2.7115    4.5642 H       1  UNL1        0.0000
     74 C           8.1730    4.2646    5.7459 C.ar    1  UNL1        0.0000
     75 H           8.9983    4.4124    5.0638 H       1  UNL1        0.0000
     76 C           8.0781    5.0297    6.8955 C.ar    1  UNL1        0.0000
     77 H           8.8249    5.7798    7.1108 H       1  UNL1        0.0000
     78 C           7.0266    4.8214    7.7722 C.ar    1  UNL1        0.0000
     79 H           6.9507    5.4049    8.6781 H       1  UNL1        0.0000
     80 C           6.0704    3.8657    7.4879 C.ar    1  UNL1        0.0000
     81 H           5.2511    3.6991    8.1752 H       1  UNL1        0.0000
     82 C           5.1031    1.0953    4.4274 C.3     1  UNL1        0.0000
     83 H           6.1844    1.0347    4.2603 H       1  UNL1        0.0000
     84 H           4.7541    0.0620    4.5385 H       1  UNL1        0.0000
     85 C           2.6932    1.4701    3.1200 C.3     1  UNL1        0.0000
     86 H           2.5138    0.6401    2.4280 H       1  UNL1        0.0000
     87 H           2.1322    2.3275    2.7236 H       1  UNL1        0.0000
     88 C           4.4092    3.5079    3.5400 C.3     1  UNL1        0.0000
     89 H           4.1460    4.1354    2.6828 H       1  UNL1        0.0000
     90 H           5.4345    3.7512    3.8258 H       1  UNL1        0.0000
@<TRIPOS>BOND
     1    11    10    1
     2     9     8    1
     3    10     8   ar
     4    10    12   ar
     5     8     6   ar
     6    13    12    1
     7    12    14   ar
     8     6     7    1
     9     6     5   ar
    10    14     5   ar
    11    14    15    1
    12     5     4    1
    13    44    43    1
    14    31    30    1
    15    42    41    1
    16    43    41   ar
    17    43    45   ar
    18    86    85    1
    19    41    39   ar
    20    29    28    1
    21    89    88    1
    22    87    85    1
    23    30    28   ar
    24    30    32   ar
    25    46    45    1
    26    45    47   ar
    27    85     4    1
    28    85     2    1
    29    28    27   ar
    30     4    88    1
    31     4    82    1
    32    18    17    1
    33    33    32    1
    34    39    40    1
    35    39    38   ar
    36    88    90    1
    37    88     3    1
    38    32    34   ar
    39    20    19    1
    40    47    38   ar
    41    47    48    1
    42    38     3    1
    43    17    19   ar
    44    17    16   ar
    45    27     2    1
    46    27    36   ar
    47    83    82    1
    48    51    50    1
    49    19    21   ar
    50    82    84    1
    51    82     1    1
    52    73    72    1
    53    34    36   ar
    54    34    35    1
    55     2    16    1
    56     3    49    1
    57    16    25   ar
    58    36    37    1
    59    75    74    1
    60    50    49   ar
    61    50    52   ar
    62    53    52    1
    63    21    22    1
    64    21    23   ar
    65    72    74   ar
    66    72    71   ar
    67    49    58   ar
    68    74    76   ar
    69    52    54   ar
    70    25    23   ar
    71    25    26    1
    72     1    71    1
    73     1    60    1
    74    23    24    1
    75    71    80   ar
    76    70    69    1
    77    58    59    1
    78    58    56   ar
    79    76    77    1
    80    76    78   ar
    81    54    56   ar
    82    54    55    1
    83    60    69   ar
    84    60    61   ar
    85    69    67   ar
    86    56    57    1
    87    80    78   ar
    88    80    81    1
    89    62    61    1
    90    78    79    1
    91    61    63   ar
    92    67    68    1
    93    67    65   ar
    94    63    65   ar
    95    63    64    1
    96    65    66    1
