@<TRIPOS>MOLECULE
1,2
 24 23 0 0 0
SMALL
GASTEIGER

@<TRIPOS>ATOM
      1 P          -2.4654    7.0913    6.2713 P.3     1  UNL1       -0.1119
      2 P           0.5037    7.1237    6.3939 P.3     1  UNL1       -0.1119
      3 C          -1.5651    6.6258    4.7223 C.3     1  UNL1       -0.0288
      4 H          -1.4000    5.5434    4.7782 H       1  UNL1        0.0316
      5 H          -2.1766    6.8494    3.8413 H       1  UNL1        0.0316
      6 C           1.3099    5.4962    6.1089 C.3     1  UNL1       -0.0445
      7 H           0.5389    4.7264    6.0687 H       1  UNL1        0.0277
      8 H           1.8767    5.5135    5.1761 H       1  UNL1        0.0277
      9 H           1.9776    5.2746    6.9394 H       1  UNL1        0.0277
     10 C          -0.2344    7.3527    4.7137 C.3     1  UNL1       -0.0288
     11 H          -0.3877    8.4260    4.5617 H       1  UNL1        0.0316
     12 H           0.4434    6.9796    3.9382 H       1  UNL1        0.0316
     13 C          -3.7491    5.7800    6.2204 C.3     1  UNL1       -0.0445
     14 H          -3.3151    4.8494    6.5868 H       1  UNL1        0.0277
     15 H          -4.5842    6.0714    6.8589 H       1  UNL1        0.0277
     16 H          -4.1018    5.6502    5.1952 H       1  UNL1        0.0277
     17 C          -3.4942    8.4735    5.6264 C.3     1  UNL1       -0.0445
     18 H          -2.8344    9.2454    5.2335 H       1  UNL1        0.0277
     19 H          -4.1668    8.1233    4.8423 H       1  UNL1        0.0277
     20 H          -4.0723    8.8945    6.4502 H       1  UNL1        0.0277
     21 C           1.9924    8.1859    6.2313 C.3     1  UNL1       -0.0445
     22 H           1.6912    9.2324    6.2343 H       1  UNL1        0.0277
     23 H           2.6444    8.0023    7.0874 H       1  UNL1        0.0277
     24 H           2.5264    7.9511    5.3094 H       1  UNL1        0.0277
@<TRIPOS>BOND
     1     5     3    1
     2    12    10    1
     3    11    10    1
     4    10     3    1
     5    10     2    1
     6     3     4    1
     7     3     1    1
     8    19    17    1
     9     8     6    1
    10    16    13    1
    11    18    17    1
    12    24    21    1
    13    17     1    1
    14    17    20    1
    15     7     6    1
    16     6     2    1
    17     6     9    1
    18    13     1    1
    19    13    14    1
    20    13    15    1
    21    21    22    1
    22    21     2    1
    23    21    23    1
