@<TRIPOS>MOLECULE
1,2
 24 23 0 0 0
SMALL
GASTEIGER

@<TRIPOS>ATOM
      1 P           0.3632    7.0913    9.5933 P.3     1  UNL1       -0.1119
      2 P          -2.6057    7.1236    9.4700 P.3     1  UNL1       -0.1119
      3 C          -0.5373    6.6254   11.1421 C.3     1  UNL1       -0.0288
      4 H          -0.7025    5.5430   11.0862 H       1  UNL1        0.0316
      5 H           0.0740    6.8489   12.0232 H       1  UNL1        0.0316
      6 C          -3.4120    5.4962    9.7553 C.3     1  UNL1       -0.0445
      7 H          -2.6412    4.7262    9.7955 H       1  UNL1        0.0277
      8 H          -3.9789    5.5136   10.6881 H       1  UNL1        0.0277
      9 H          -4.0798    5.2747    8.9249 H       1  UNL1        0.0277
     10 C          -1.8680    7.3524   11.1505 C.3     1  UNL1       -0.0288
     11 H          -1.7147    8.4257   11.3026 H       1  UNL1        0.0316
     12 H          -2.5459    6.9793   11.9259 H       1  UNL1        0.0316
     13 C           1.6466    5.7797    9.6439 C.3     1  UNL1       -0.0445
     14 H           1.2127    4.8491    9.2775 H       1  UNL1        0.0277
     15 H           2.4817    6.0711    9.0055 H       1  UNL1        0.0277
     16 H           1.9994    5.6498   10.6692 H       1  UNL1        0.0277
     17 C           1.3920    8.4735   10.2381 C.3     1  UNL1       -0.0445
     18 H           0.7321    9.2453   10.6311 H       1  UNL1        0.0277
     19 H           2.0646    8.1231   11.0221 H       1  UNL1        0.0277
     20 H           1.9700    8.8944    9.4141 H       1  UNL1        0.0277
     21 C          -4.0945    8.1857    9.6329 C.3     1  UNL1       -0.0445
     22 H          -3.7935    9.2322    9.6300 H       1  UNL1        0.0277
     23 H          -4.7465    8.0021    8.7769 H       1  UNL1        0.0277
     24 H          -4.6284    7.9508   10.5548 H       1  UNL1        0.0277
@<TRIPOS>BOND
     1    23    21    1
     2     9     6    1
     3    15    13    1
     4    14    13    1
     5    20    17    1
     6     2    21    1
     7     2     6    1
     8     2    10    1
     9     1    13    1
    10     1    17    1
    11     1     3    1
    12    22    21    1
    13    21    24    1
    14    13    16    1
    15     6     7    1
    16     6     8    1
    17    17    18    1
    18    17    19    1
    19     4     3    1
    20     3    10    1
    21     3     5    1
    22    10    11    1
    23    10    12    1
