@<TRIPOS>MOLECULE
1,2
 24 23 0 0 0
SMALL
GASTEIGER

@<TRIPOS>ATOM
      1 P           5.8075   -0.2774   10.3315 P.3     1  UNL1       -0.1119
      2 P           4.0543    1.5202    8.7417 P.3     1  UNL1       -0.1119
      3 C           2.3039    2.1254    8.7320 C.3     1  UNL1       -0.0445
      4 H           1.8278    1.8809    9.6800 H       1  UNL1        0.0277
      5 H           1.7539    1.6615    7.9135 H       1  UNL1        0.0277
      6 H           2.2955    3.2060    8.6015 H       1  UNL1        0.0277
      7 C           4.4044    1.8536    6.9626 C.3     1  UNL1       -0.0445
      8 H           4.4325    2.9270    6.7906 H       1  UNL1        0.0277
      9 H           3.6360    1.3994    6.3368 H       1  UNL1        0.0277
     10 H           5.3785    1.4326    6.7231 H       1  UNL1        0.0277
     11 C           6.1322   -1.2886   11.8328 C.3     1  UNL1       -0.0445
     12 H           7.1496   -1.1007   12.1762 H       1  UNL1        0.0277
     13 H           6.0207   -2.3487   11.6011 H       1  UNL1        0.0277
     14 H           5.4284   -1.0155   12.6174 H       1  UNL1        0.0277
     15 C           4.1839   -1.0180    9.8340 C.3     1  UNL1       -0.0288
     16 H           4.2900   -2.0986    9.6906 H       1  UNL1        0.0316
     17 H           3.4731   -0.8369   10.6422 H       1  UNL1        0.0316
     18 C           6.8804   -1.2346    9.1800 C.3     1  UNL1       -0.0445
     19 H           6.7052   -0.9110    8.1549 H       1  UNL1        0.0277
     20 H           6.6501   -2.2970    9.2703 H       1  UNL1        0.0277
     21 H           7.9258   -1.0694    9.4369 H       1  UNL1        0.0277
     22 C           3.7256   -0.3139    8.5709 C.3     1  UNL1       -0.0288
     23 H           2.6686   -0.4986    8.3622 H       1  UNL1        0.0316
     24 H           4.3158   -0.6630    7.7194 H       1  UNL1        0.0316
@<TRIPOS>BOND
     1     9     7    1
     2    10     7    1
     3     8     7    1
     4     7     2    1
     5    24    22    1
     6     5     3    1
     7    19    18    1
     8    23    22    1
     9    22     2    1
    10    22    15    1
    11     6     3    1
    12     3     2    1
    13     3     4    1
    14    18    20    1
    15    18    21    1
    16    18     1    1
    17    16    15    1
    18    15     1    1
    19    15    17    1
    20     1    11    1
    21    13    11    1
    22    11    12    1
    23    11    14    1
