@<TRIPOS>MOLECULE
1,2
 24 23 0 0 0
SMALL
GASTEIGER

@<TRIPOS>ATOM
      1 P           5.2005    4.1313   10.2538 P.3     1  UNL1       -0.1119
      2 P           4.4375    1.9871   12.1827 P.3     1  UNL1       -0.1119
      3 C           4.7822    5.1987    8.8145 C.3     1  UNL1       -0.0445
      4 H           5.6612    5.3741    8.2005 H       1  UNL1        0.0277
      5 H           4.3935    6.1533    9.1721 H       1  UNL1        0.0277
      6 H           4.0256    4.6974    8.2140 H       1  UNL1        0.0277
      7 C           2.9314    0.9827   12.5451 C.3     1  UNL1       -0.0445
      8 H           2.2440    1.0456   11.7029 H       1  UNL1        0.0277
      9 H           2.4432    1.3504   13.4485 H       1  UNL1        0.0277
     10 H           3.2154   -0.0585   12.6937 H       1  UNL1        0.0277
     11 C           3.6552    4.4576   11.2284 C.3     1  UNL1       -0.0288
     12 H           3.5278    5.5323   11.3949 H       1  UNL1        0.0316
     13 H           2.8182    4.0878   10.6306 H       1  UNL1        0.0316
     14 C           6.3217    5.2943   11.1362 C.3     1  UNL1       -0.0445
     15 H           6.4890    4.9351   12.1509 H       1  UNL1        0.0277
     16 H           5.8788    6.2906   11.1698 H       1  UNL1        0.0277
     17 H           7.2858    5.3404   10.6320 H       1  UNL1        0.0277
     18 C           3.7432    3.6863   12.5296 C.3     1  UNL1       -0.0288
     19 H           2.7713    3.6111   13.0258 H       1  UNL1        0.0316
     20 H           4.4379    4.1884   13.2103 H       1  UNL1        0.0316
     21 C           5.2372    1.7520   13.8341 C.3     1  UNL1       -0.0445
     22 H           5.6692    0.7553   13.9087 H       1  UNL1        0.0277
     23 H           4.4980    1.8879   14.6251 H       1  UNL1        0.0277
     24 H           6.0349    2.4838   13.9617 H       1  UNL1        0.0277
@<TRIPOS>BOND
     1     4     3    1
     2     6     3    1
     3     3     5    1
     4     3     1    1
     5     1    14    1
     6     1    11    1
     7    13    11    1
     8    17    14    1
     9    14    16    1
    10    14    15    1
    11    11    12    1
    12    11    18    1
    13     8     7    1
    14     2    18    1
    15     2     7    1
    16     2    21    1
    17    18    19    1
    18    18    20    1
    19     7    10    1
    20     7     9    1
    21    21    22    1
    22    21    24    1
    23    21    23    1
