@<TRIPOS>MOLECULE
1,2
 24 23 0 0 0
SMALL
GASTEIGER

@<TRIPOS>ATOM
      1 P           3.7839   10.5249    4.5777 P.3     1  UNL1       -0.1119
      2 P           4.5998    7.8040    5.6508 P.3     1  UNL1       -0.1119
      3 C           3.1929    8.6963    6.4547 C.3     1  UNL1       -0.0288
      4 H           2.2905    8.4596    5.8789 H       1  UNL1        0.0316
      5 H           3.0624    8.3471    7.4856 H       1  UNL1        0.0316
      6 C           4.2916   12.2834    4.6295 C.3     1  UNL1       -0.0445
      7 H           5.3147   12.3705    4.9928 H       1  UNL1        0.0277
      8 H           3.6176   12.8537    5.2707 H       1  UNL1        0.0277
      9 H           4.2445   12.6652    3.6092 H       1  UNL1        0.0277
     10 C           2.0480   10.7748    4.0413 C.3     1  UNL1       -0.0445
     11 H           2.0583   11.1920    3.0361 H       1  UNL1        0.0277
     12 H           1.5391   11.4580    4.7235 H       1  UNL1        0.0277
     13 H           1.5295    9.8171    4.0083 H       1  UNL1        0.0277
     14 C           5.5896    7.5530    7.2049 C.3     1  UNL1       -0.0445
     15 H           6.6277    7.2988    6.9972 H       1  UNL1        0.0277
     16 H           5.1364    6.7477    7.7852 H       1  UNL1        0.0277
     17 H           5.5637    8.4660    7.8007 H       1  UNL1        0.0277
     18 C           3.4849   10.1834    6.3696 C.3     1  UNL1       -0.0288
     19 H           4.3986   10.4292    6.9235 H       1  UNL1        0.0316
     20 H           2.6630   10.7968    6.7537 H       1  UNL1        0.0316
     21 C           3.8624    6.1244    5.5905 C.3     1  UNL1       -0.0445
     22 H           3.2378    6.0359    4.7013 H       1  UNL1        0.0277
     23 H           3.2595    5.9660    6.4876 H       1  UNL1        0.0277
     24 H           4.6534    5.3735    5.5557 H       1  UNL1        0.0277
@<TRIPOS>BOND
     1    11    10    1
     2     9     6    1
     3    13    10    1
     4    10     1    1
     5    10    12    1
     6     1     6    1
     7     1    18    1
     8     6     7    1
     9     6     8    1
    10    22    21    1
    11    24    21    1
    12    21     2    1
    13    21    23    1
    14     2     3    1
    15     2    14    1
    16     4     3    1
    17    18     3    1
    18    18    20    1
    19    18    19    1
    20     3     5    1
    21    15    14    1
    22    14    16    1
    23    14    17    1
