@<TRIPOS>MOLECULE
1,2
 24 23 0 0 0
SMALL
GASTEIGER

@<TRIPOS>ATOM
      1 P           6.2386    7.2468    2.9561 P.3     1  UNL1       -0.1119
      2 P           6.9749    9.5294    4.5864 P.3     1  UNL1       -0.1119
      3 C           8.1628    8.0904    4.7044 C.3     1  UNL1       -0.0288
      4 H           9.0016    8.3260    4.0404 H       1  UNL1        0.0316
      5 H           8.5494    8.0075    5.7257 H       1  UNL1        0.0316
      6 C           7.4898    6.8072    4.2432 C.3     1  UNL1       -0.0288
      7 H           6.9360    6.3297    5.0609 H       1  UNL1        0.0316
      8 H           8.2123    6.0802    3.8549 H       1  UNL1        0.0316
      9 C           7.3431   10.3519    6.1980 C.3     1  UNL1       -0.0445
     10 H           6.8612   11.3304    6.2124 H       1  UNL1        0.0277
     11 H           8.4232   10.4850    6.2885 H       1  UNL1        0.0277
     12 H           6.9818    9.7705    7.0409 H       1  UNL1        0.0277
     13 C           7.3488    7.4613    1.5105 C.3     1  UNL1       -0.0445
     14 H           6.7493    7.3390    0.6099 H       1  UNL1        0.0277
     15 H           8.1379    6.7074    1.5341 H       1  UNL1        0.0277
     16 H           7.7846    8.4591    1.5074 H       1  UNL1        0.0277
     17 C           7.9739   10.6915    3.5795 C.3     1  UNL1       -0.0445
     18 H           8.0103   10.3497    2.5456 H       1  UNL1        0.0277
     19 H           8.9840   10.7876    3.9833 H       1  UNL1        0.0277
     20 H           7.4733   11.6615    3.5985 H       1  UNL1        0.0277
     21 C           5.6371    5.5719    2.5220 C.3     1  UNL1       -0.0445
     22 H           5.0740    5.1375    3.3445 H       1  UNL1        0.0277
     23 H           6.4850    4.9307    2.2735 H       1  UNL1        0.0277
     24 H           4.9785    5.6662    1.6580 H       1  UNL1        0.0277
@<TRIPOS>BOND
     1    14    13    1
     2    16    13    1
     3    13    15    1
     4    13     1    1
     5    24    21    1
     6    23    21    1
     7    21     1    1
     8    21    22    1
     9    18    17    1
    10     1     6    1
    11    17    20    1
    12    17    19    1
    13    17     2    1
    14     8     6    1
    15     4     3    1
    16     6     3    1
    17     6     7    1
    18     2     3    1
    19     2     9    1
    20     3     5    1
    21     9    10    1
    22     9    11    1
    23     9    12    1
