@<TRIPOS>MOLECULE
1,3
 41 41 0 0 0
SMALL
GASTEIGER

@<TRIPOS>ATOM
      1 P          14.8693    0.6961    7.6912 P.3     1  UNL1        0.0000
      2 H          15.3033    2.0063    7.9108 H       1  UNL1        0.0000
      3 P          14.1489    1.1227    5.7424 P.3     1  UNL1        0.0000
      4 SI         12.3346    0.1008    3.7115 Si      1  UNL1        0.0000
      5 SI         11.6728   -0.0808    6.8136 Si      1  UNL1        0.0000
      6 N          12.6720    0.3855    5.4292 N.3     1  UNL1        0.0000
      7 C          13.8518    2.9066    5.5612 C.ar    1  UNL1        0.0000
      8 C          14.9394    3.7718    5.6405 C.ar    1  UNL1        0.0000
      9 H          15.9296    3.3676    5.8118 H       1  UNL1        0.0000
     10 C          14.7494    5.1329    5.4969 C.ar    1  UNL1        0.0000
     11 H          15.5950    5.8014    5.5570 H       1  UNL1        0.0000
     12 C          13.4777    5.6377    5.2703 C.ar    1  UNL1        0.0000
     13 H          13.3325    6.7012    5.1533 H       1  UNL1        0.0000
     14 C          12.3945    4.7778    5.1938 C.ar    1  UNL1        0.0000
     15 H          11.4029    5.1705    5.0210 H       1  UNL1        0.0000
     16 C          12.5775    3.4141    5.3385 C.ar    1  UNL1        0.0000
     17 H          11.7393    2.7359    5.2850 H       1  UNL1        0.0000
     18 C          13.8058    0.7118    2.6817 C.3     1  UNL1        0.0000
     19 H          13.6087    0.6127    1.6184 H       1  UNL1        0.0000
     20 H          14.7146    0.1595    2.9074 H       1  UNL1        0.0000
     21 H          14.0098    1.7610    2.8822 H       1  UNL1        0.0000
     22 C          10.8036    1.0876    3.1440 C.3     1  UNL1        0.0000
     23 H           9.9728    1.0185    3.8350 H       1  UNL1        0.0000
     24 H          10.4666    0.6990    2.1889 H       1  UNL1        0.0000
     25 H          11.0349    2.1387    3.0013 H       1  UNL1        0.0000
     26 C          12.0639   -1.7718    3.4455 C.3     1  UNL1        0.0000
     27 H          11.5434   -2.2346    4.2775 H       1  UNL1        0.0000
     28 H          13.0011   -2.3013    3.3041 H       1  UNL1        0.0000
     29 H          11.4678   -1.9329    2.5537 H       1  UNL1        0.0000
     30 C          11.6501    1.3277    8.1006 C.3     1  UNL1        0.0000
     31 H          12.0588    0.9912    9.0483 H       1  UNL1        0.0000
     32 H          10.6416    1.6865    8.2854 H       1  UNL1        0.0000
     33 H          12.2518    2.1713    7.7725 H       1  UNL1        0.0000
     34 C           9.8828   -0.3636    6.2316 C.3     1  UNL1        0.0000
     35 H           9.3712    0.5696    6.0263 H       1  UNL1        0.0000
     36 H           9.3389   -0.8575    7.0286 H       1  UNL1        0.0000
     37 H           9.8124   -0.9862    5.3487 H       1  UNL1        0.0000
     38 C          12.3056   -1.7233    7.5527 C.3     1  UNL1        0.0000
     39 H          12.1938   -2.5546    6.8617 H       1  UNL1        0.0000
     40 H          11.7466   -1.9706    8.4500 H       1  UNL1        0.0000
     41 H          13.3537   -1.6492    7.8294 H       1  UNL1        0.0000
@<TRIPOS>BOND
     1    19    18    1
     2    24    22    1
     3    29    26    1
     4    18    21    1
     5    18    20    1
     6    18     4    1
     7    25    22    1
     8    22     4    1
     9    22    23    1
    10    28    26    1
    11    26     4    1
    12    26    27    1
    13     4     6    1
    14    15    14    1
    15    13    12    1
    16    14    12   ar
    17    14    16   ar
    18    12    10   ar
    19    17    16    1
    20    16     7   ar
    21    37    34    1
    22     6     3    1
    23     6     5    1
    24    10    11    1
    25    10     8   ar
    26     7     8   ar
    27     7     3    1
    28     8     9    1
    29     3     1    1
    30    35    34    1
    31    34     5    1
    32    34    36    1
    33     5    38    1
    34     5    30    1
    35    39    38    1
    36    38    41    1
    37    38    40    1
    38     1     2    1
    39    33    30    1
    40    30    32    1
    41    30    31    1
