@<TRIPOS>MOLECULE
1,2
 24 23 0 0 0
SMALL
GASTEIGER

@<TRIPOS>ATOM
      1 P           1.2990    1.9047    2.1538 P.3     1  UNL1       -0.1119
      2 P           4.1375    1.6283    3.7562 P.3     1  UNL1       -0.1119
      3 C          -0.0379    3.1351    2.3233 C.3     1  UNL1       -0.0445
      4 H          -0.0037    3.5719    3.3195 H       1  UNL1        0.0277
      5 H          -1.0087    2.6684    2.1728 H       1  UNL1        0.0277
      6 H           0.0959    3.9168    1.5761 H       1  UNL1        0.0277
      7 C           0.9510    1.0371    0.5939 C.3     1  UNL1       -0.0445
      8 H           1.7862    0.3761    0.3702 H       1  UNL1        0.0277
      9 H           0.7955    1.7458   -0.2185 H       1  UNL1        0.0277
     10 H           0.0640    0.4193    0.7224 H       1  UNL1        0.0277
     11 C           2.7479    2.9945    1.7734 C.3     1  UNL1       -0.0288
     12 H           2.6798    3.3214    0.7317 H       1  UNL1        0.0316
     13 H           2.6718    3.8784    2.4125 H       1  UNL1        0.0316
     14 C           4.0701    2.2774    2.0299 C.3     1  UNL1       -0.0288
     15 H           4.9184    2.9438    1.8495 H       1  UNL1        0.0316
     16 H           4.1612    1.4096    1.3703 H       1  UNL1        0.0316
     17 C           4.4919    3.1040    4.7670 C.3     1  UNL1       -0.0445
     18 H           4.7493    2.8028    5.7800 H       1  UNL1        0.0277
     19 H           3.6100    3.7384    4.8140 H       1  UNL1        0.0277
     20 H           5.3263    3.6566    4.3369 H       1  UNL1        0.0277
     21 C           5.6802    0.6636    3.7569 C.3     1  UNL1       -0.0445
     22 H           5.9290    0.3485    4.7680 H       1  UNL1        0.0277
     23 H           6.4962    1.2614    3.3519 H       1  UNL1        0.0277
     24 H           5.5282   -0.2230    3.1432 H       1  UNL1        0.0277
@<TRIPOS>BOND
     1     9     7    1
     2     8     7    1
     3     7    10    1
     4     7     1    1
     5    12    11    1
     6    16    14    1
     7     6     3    1
     8    11    14    1
     9    11     1    1
    10    11    13    1
    11    15    14    1
    12    14     2    1
    13     1     3    1
    14     5     3    1
    15     3     4    1
    16    24    21    1
    17    23    21    1
    18     2    21    1
    19     2    17    1
    20    21    22    1
    21    20    17    1
    22    17    19    1
    23    17    18    1
