@<TRIPOS>MOLECULE
1,2
 80 79 0 0 0
SMALL
GASTEIGER

@<TRIPOS>ATOM
      1 P          -1.5903    4.7299   21.8387 P.3     1  UNL1        0.0000
      2 P           1.3532    1.9259   19.4044 P.3     1  UNL1        0.0000
      3 SI         -2.5556    4.9073   18.8340 Si      1  UNL1        0.0000
      4 SI          0.0890    3.9760   17.3533 Si      1  UNL1        0.0000
      5 N          -1.1283    3.8847   18.6209 N.3     1  UNL1        0.0000
      6 C          -2.5973    6.3338   17.5730 C.3     1  UNL1        0.0000
      7 H          -1.8351    7.0829   17.7496 H       1  UNL1        0.0000
      8 H          -3.5608    6.8277   17.6326 H       1  UNL1        0.0000
      9 H          -2.4828    5.9696   16.5596 H       1  UNL1        0.0000
     10 C          -4.1053    3.8445   18.5034 C.3     1  UNL1        0.0000
     11 H          -4.0574    2.8712   18.9809 H       1  UNL1        0.0000
     12 H          -4.2134    3.6816   17.4345 H       1  UNL1        0.0000
     13 H          -5.0067    4.3397   18.8493 H       1  UNL1        0.0000
     14 C          -2.4380    5.7531   20.5517 C.3     1  UNL1        0.0000
     15 H          -1.8222    6.6439   20.4197 H       1  UNL1        0.0000
     16 H          -3.4120    6.0796   20.9142 H       1  UNL1        0.0000
     17 C          -0.6575    6.0984   22.8104 C.3     1  UNL1        0.0000
     18 C          -0.0489    5.4658   24.0623 C.3     1  UNL1        0.0000
     19 H           0.6862    6.1389   24.5027 H       1  UNL1        0.0000
     20 H           0.4517    4.5330   23.7961 H       1  UNL1        0.0000
     21 H          -0.8034    5.2566   24.8162 H       1  UNL1        0.0000
     22 C          -1.4828    7.3354   23.1855 C.3     1  UNL1        0.0000
     23 H          -0.8028    8.1590   23.4032 H       1  UNL1        0.0000
     24 H          -2.0842    7.1790   24.0726 H       1  UNL1        0.0000
     25 H          -2.1330    7.6552   22.3754 H       1  UNL1        0.0000
     26 C           0.5001    6.5883   21.9330 C.3     1  UNL1        0.0000
     27 H           1.0505    7.3673   22.4604 H       1  UNL1        0.0000
     28 H           0.1479    7.0077   20.9925 H       1  UNL1        0.0000
     29 H           1.1888    5.7791   21.7124 H       1  UNL1        0.0000
     30 C          -3.0462    4.1351   22.9284 C.3     1  UNL1        0.0000
     31 C          -4.1723    3.6355   22.0198 C.3     1  UNL1        0.0000
     32 H          -4.9078    3.1031   22.6226 H       1  UNL1        0.0000
     33 H          -3.7959    2.9429   21.2755 H       1  UNL1        0.0000
     34 H          -4.6838    4.4525   21.5160 H       1  UNL1        0.0000
     35 C          -3.6563    5.1725   23.8694 C.3     1  UNL1        0.0000
     36 H          -4.5614    4.7498   24.3071 H       1  UNL1        0.0000
     37 H          -3.9394    6.0792   23.3404 H       1  UNL1        0.0000
     38 H          -2.9878    5.4204   24.6881 H       1  UNL1        0.0000
     39 C          -2.5263    2.9532   23.7495 C.3     1  UNL1        0.0000
     40 H          -3.3121    2.5750   24.4029 H       1  UNL1        0.0000
     41 H          -1.6729    3.2349   24.3617 H       1  UNL1        0.0000
     42 H          -2.2154    2.1449   23.0918 H       1  UNL1        0.0000
     43 C          -0.6905    3.4571   15.6909 C.3     1  UNL1        0.0000
     44 H          -1.3191    4.2538   15.3096 H       1  UNL1        0.0000
     45 H          -1.3069    2.5674   15.7728 H       1  UNL1        0.0000
     46 H           0.0751    3.2656   14.9467 H       1  UNL1        0.0000
     47 C           0.7953    5.7452   17.2474 C.3     1  UNL1        0.0000
     48 H           0.9646    6.1666   18.2339 H       1  UNL1        0.0000
     49 H           0.1299    6.4077   16.7072 H       1  UNL1        0.0000
     50 H           1.7459    5.7435   16.7220 H       1  UNL1        0.0000
     51 C           1.5589    2.8308   17.8042 C.3     1  UNL1        0.0000
     52 H           1.7990    2.1287   17.0066 H       1  UNL1        0.0000
     53 H           2.4262    3.4757   17.9408 H       1  UNL1        0.0000
     54 C           0.9379    0.1620   18.7921 C.3     1  UNL1        0.0000
     55 C           0.5067   -0.6810   19.9933 C.3     1  UNL1        0.0000
     56 H           0.1199   -1.6407   19.6510 H       1  UNL1        0.0000
     57 H          -0.2813   -0.1812   20.5500 H       1  UNL1        0.0000
     58 H           1.3328   -0.8710   20.6719 H       1  UNL1        0.0000
     59 C           2.0533   -0.5691   18.0459 C.3     1  UNL1        0.0000
     60 H           1.6299   -1.4492   17.5606 H       1  UNL1        0.0000
     61 H           2.8246   -0.9174   18.7268 H       1  UNL1        0.0000
     62 H           2.5051    0.0483   17.2727 H       1  UNL1        0.0000
     63 C          -0.2561    0.2876   17.8389 C.3     1  UNL1        0.0000
     64 H          -0.5857   -0.7080   17.5409 H       1  UNL1        0.0000
     65 H          -0.0002    0.8384   16.9366 H       1  UNL1        0.0000
     66 H          -1.0990    0.7675   18.3295 H       1  UNL1        0.0000
     67 C           3.1606    1.9314   20.0388 C.3     1  UNL1        0.0000
     68 C           4.2387    1.5830   19.0080 C.3     1  UNL1        0.0000
     69 H           5.2151    1.8025   19.4402 H       1  UNL1        0.0000
     70 H           4.1423    2.1740   18.1010 H       1  UNL1        0.0000
     71 H           4.2368    0.5340   18.7402 H       1  UNL1        0.0000
     72 C           3.2538    0.9849   21.2357 C.3     1  UNL1        0.0000
     73 H           4.1576    1.1923   21.8076 H       1  UNL1        0.0000
     74 H           3.2911   -0.0551   20.9213 H       1  UNL1        0.0000
     75 H           2.3912    1.1324   21.8875 H       1  UNL1        0.0000
     76 C           3.4599    3.3477   20.5430 C.3     1  UNL1        0.0000
     77 H           4.5113    3.4242   20.8186 H       1  UNL1        0.0000
     78 H           2.8601    3.5718   21.4215 H       1  UNL1        0.0000
     79 H           3.2517    4.1028   19.7878 H       1  UNL1        0.0000
     80 H          -1.4323    2.9116   18.7278 H       1  UNL1        0.0000
@<TRIPOS>BOND
     1    46    43    1
     2    44    43    1
     3    43    45    1
     4    43     4    1
     5     9     6    1
     6    49    47    1
     7    50    47    1
     8    65    63    1
     9    52    51    1
    10    47     4    1
    11    47    48    1
    12    62    59    1
    13     4    51    1
    14     4     5    1
    15    12    10    1
    16    64    63    1
    17    60    59    1
    18     6     8    1
    19     6     7    1
    20     6     3    1
    21    51    53    1
    22    51     2    1
    23    63    66    1
    24    63    54    1
    25    59    61    1
    26    59    54    1
    27    70    68    1
    28    10     3    1
    29    10    13    1
    30    10    11    1
    31     5    80    1
    32     5     3    1
    33    71    68    1
    34    54     2    1
    35    54    55    1
    36     3    14    1
    37    68    69    1
    38    68    67    1
    39     2    67    1
    40    56    55    1
    41    79    76    1
    42    55    57    1
    43    55    58    1
    44    67    76    1
    45    67    72    1
    46    15    14    1
    47    76    77    1
    48    76    78    1
    49    14    16    1
    50    14     1    1
    51    74    72    1
    52    28    26    1
    53    72    73    1
    54    72    75    1
    55    33    31    1
    56    34    31    1
    57    29    26    1
    58     1    17    1
    59     1    30    1
    60    26    27    1
    61    26    17    1
    62    31    32    1
    63    31    30    1
    64    25    22    1
    65    17    22    1
    66    17    18    1
    67    30    39    1
    68    30    35    1
    69    42    39    1
    70    22    23    1
    71    22    24    1
    72    37    35    1
    73    39    41    1
    74    39    40    1
    75    20    18    1
    76    35    36    1
    77    35    38    1
    78    18    19    1
    79    18    21    1
