@<TRIPOS>MOLECULE
1,2
 52 55 0 0 0
SMALL
GASTEIGER

@<TRIPOS>ATOM
      1 P          13.2512    5.5131    4.1554 P.3     1  UNL1       -0.0435
      2 P          10.9609    4.3741    5.7229 P.3     1  UNL1       -0.0435
      3 C          12.1175    4.3387    3.2376 C.3     1  UNL1       -0.0199
      4 H          11.3569    4.9308    2.7201 H       1  UNL1        0.0323
      5 H          12.6926    3.7807    2.4935 H       1  UNL1        0.0323
      6 C          11.4467    3.3889    4.2263 C.3     1  UNL1       -0.0199
      7 H          12.1669    2.6380    4.5645 H       1  UNL1        0.0323
      8 H          10.5775    2.8950    3.7811 H       1  UNL1        0.0323
      9 C          13.1310    7.0524    3.1732 C.ar    1  UNL1       -0.0189
     10 C          11.9059    7.5678    2.7588 C.ar    1  UNL1       -0.0538
     11 H          10.9990    7.0008    2.9141 H       1  UNL1        0.0624
     12 C          11.8340    8.8087    2.1528 C.ar    1  UNL1       -0.0612
     13 H          10.8768    9.1923    1.8290 H       1  UNL1        0.0618
     14 C          12.9811    9.5626    1.9663 C.ar    1  UNL1       -0.0617
     15 H          12.9225   10.5334    1.4964 H       1  UNL1        0.0618
     16 C          14.2030    9.0676    2.3920 C.ar    1  UNL1       -0.0612
     17 H          15.1010    9.6532    2.2554 H       1  UNL1        0.0618
     18 C          14.2773    7.8257    2.9951 C.ar    1  UNL1       -0.0538
     19 H          15.2327    7.4401    3.3243 H       1  UNL1        0.0624
     20 C          14.8964    4.9465    3.5872 C.ar    1  UNL1       -0.0189
     21 C          15.8936    4.7250    4.5270 C.ar    1  UNL1       -0.0538
     22 H          15.6611    4.8634    5.5741 H       1  UNL1        0.0624
     23 C          17.1497    4.3055    4.1255 C.ar    1  UNL1       -0.0612
     24 H          17.9204    4.1276    4.8616 H       1  UNL1        0.0618
     25 C          17.4178    4.1119    2.7810 C.ar    1  UNL1       -0.0617
     26 H          18.3964    3.7803    2.4651 H       1  UNL1        0.0618
     27 C          16.4308    4.3493    1.8366 C.ar    1  UNL1       -0.0612
     28 H          16.6440    4.2078    0.7865 H       1  UNL1        0.0618
     29 C          15.1759    4.7695    2.2348 C.ar    1  UNL1       -0.0538
     30 H          14.4126    4.9752    1.4954 H       1  UNL1        0.0624
     31 C           9.4527    5.1778    5.0657 C.ar    1  UNL1       -0.0189
     32 C           8.3436    4.4447    4.6534 C.ar    1  UNL1       -0.0538
     33 H           8.3409    3.3685    4.7643 H       1  UNL1        0.0624
     34 C           7.2467    5.0941    4.1186 C.ar    1  UNL1       -0.0612
     35 H           6.3862    4.5236    3.7996 H       1  UNL1        0.0618
     36 C           7.2458    6.4752    3.9907 C.ar    1  UNL1       -0.0617
     37 H           6.3847    6.9771    3.5740 H       1  UNL1        0.0618
     38 C           8.3470    7.2092    4.3976 C.ar    1  UNL1       -0.0612
     39 H           8.3493    8.2856    4.2968 H       1  UNL1        0.0618
     40 C           9.4459    6.5589    4.9316 C.ar    1  UNL1       -0.0538
     41 H          10.3240    7.1098    5.2447 H       1  UNL1        0.0624
     42 C          10.2395    3.1481    6.8564 C.ar    1  UNL1       -0.0189
     43 C          10.9075    1.9560    7.1248 C.ar    1  UNL1       -0.0538
     44 H          11.8218    1.7261    6.5992 H       1  UNL1        0.0624
     45 C          10.4209    1.0895    8.0859 C.ar    1  UNL1       -0.0612
     46 H          10.9419    0.1644    8.2845 H       1  UNL1        0.0618
     47 C           9.2769    1.4063    8.8006 C.ar    1  UNL1       -0.0617
     48 H           8.9009    0.7285    9.5531 H       1  UNL1        0.0618
     49 C           8.6217    2.6022    8.5564 C.ar    1  UNL1       -0.0612
     50 H           7.7358    2.8594    9.1198 H       1  UNL1        0.0618
     51 C           9.1023    3.4712    7.5943 C.ar    1  UNL1       -0.0538
     52 H           8.5885    4.4048    7.4044 H       1  UNL1        0.0624
@<TRIPOS>BOND
     1    28    27    1
     2    30    29    1
     3    15    14    1
     4    13    12    1
     5    27    29   ar
     6    27    25   ar
     7    14    12   ar
     8    14    16   ar
     9    12    10   ar
    10    29    20   ar
    11    17    16    1
    12    16    18   ar
    13    26    25    1
    14     5     3    1
    15     4     3    1
    16    10    11    1
    17    10     9   ar
    18    25    23   ar
    19    18     9   ar
    20    18    19    1
    21     9     1    1
    22     3     1    1
    23     3     6    1
    24    37    36    1
    25    20     1    1
    26    20    21   ar
    27     8     6    1
    28    35    34    1
    29    36    34   ar
    30    36    38   ar
    31    34    32   ar
    32    23    21   ar
    33    23    24    1
    34     6     7    1
    35     6     2    1
    36    39    38    1
    37    38    40   ar
    38    21    22    1
    39    32    33    1
    40    32    31   ar
    41    40    31   ar
    42    40    41    1
    43    31     2    1
    44     2    42    1
    45    44    43    1
    46    42    43   ar
    47    42    51   ar
    48    43    45   ar
    49    52    51    1
    50    51    49   ar
    51    45    46    1
    52    45    47   ar
    53    49    47   ar
    54    49    50    1
    55    47    48    1
