@<TRIPOS>MOLECULE
1,2
 94 96 0 0 0
SMALL
GASTEIGER

@<TRIPOS>ATOM
      1 P           2.7892    7.0648    4.6056 P.3     1  UNL1        0.0000
      2 P           1.1993    9.4033    2.2494 P.3     1  UNL1        0.0000
      3 P          -0.6985    4.8877    6.3150 P.3     1  UNL1        0.0000
      4 C          -1.1033    7.4878    5.2952 C.ar    1  UNL1        0.0000
      5 C          -1.0361    7.8272    2.7264 C.ar    1  UNL1        0.0000
      6 C           4.5690    6.5204    4.3004 C.3     1  UNL1        0.0000
      7 H           4.6874    5.4762    4.6029 H       1  UNL1        0.0000
      8 C           0.4979    5.8687    3.6135 C.ar    1  UNL1        0.0000
      9 C          -2.3451    7.3949    2.4901 C.ar    1  UNL1        0.0000
     10 H          -2.8033    6.7018    3.1839 H       1  UNL1        0.0000
     11 C          -1.4588    6.5711    6.3062 C.ar    1  UNL1        0.0000
     12 C          -0.4900    8.7733    1.8556 C.ar    1  UNL1        0.0000
     13 C           2.4528    4.4547    3.4532 C.ar    1  UNL1        0.0000
     14 H           3.4954    4.2577    3.6450 H       1  UNL1        0.0000
     15 C           0.8674   11.2257    1.8879 C.3     1  UNL1        0.0000
     16 H           0.3978   11.3285    0.9050 H       1  UNL1        0.0000
     17 C           2.5351    6.5142    6.3999 C.3     1  UNL1        0.0000
     18 H           1.4352    6.4788    6.4579 H       1  UNL1        0.0000
     19 C           4.8804    6.6492    2.8130 C.3     1  UNL1        0.0000
     20 H           4.6848    7.6698    2.4896 H       1  UNL1        0.0000
     21 H           4.2607    5.9804    2.2194 H       1  UNL1        0.0000
     22 H           5.9262    6.4090    2.6176 H       1  UNL1        0.0000
     23 C           0.3968    3.7095    2.4936 C.ar    1  UNL1        0.0000
     24 H          -0.1735    2.9782    1.9384 H       1  UNL1        0.0000
     25 C           3.0201    7.5478    7.4103 C.3     1  UNL1        0.0000
     26 H           2.5191    7.4035    8.3668 H       1  UNL1        0.0000
     27 H           2.8030    8.5519    7.0496 H       1  UNL1        0.0000
     28 H           4.0904    7.4680    7.5818 H       1  UNL1        0.0000
     29 C          -0.1989    4.8862    2.9040 C.ar    1  UNL1        0.0000
     30 H          -1.2341    5.0569    2.6469 H       1  UNL1        0.0000
     31 B          -0.3186    7.1670    3.9697 B       1  UNL1        0.0000
     32 C           1.8659    5.6535    3.8483 C.ar    1  UNL1        0.0000
     33 C          -1.6915    8.7612    5.3550 C.ar    1  UNL1        0.0000
     34 H          -1.4074    9.4856    4.6049 H       1  UNL1        0.0000
     35 C          -3.0772    7.8397    1.4078 C.ar    1  UNL1        0.0000
     36 H          -4.0847    7.4820    1.2482 H       1  UNL1        0.0000
     37 C           1.7868    9.4764   -0.6651 C.3     1  UNL1        0.0000
     38 H           2.5176    9.1303   -1.3971 H       1  UNL1        0.0000
     39 H           1.8272   10.5625   -0.6455 H       1  UNL1        0.0000
     40 H           0.8055    9.1614   -1.0094 H       1  UNL1        0.0000
     41 C           1.7275    3.4822    2.7894 C.ar    1  UNL1        0.0000
     42 H           2.2085    2.5624    2.4876 H       1  UNL1        0.0000
     43 C           3.0676    5.1242    6.7313 C.3     1  UNL1        0.0000
     44 H           4.1545    5.0934    6.7046 H       1  UNL1        0.0000
     45 H           2.6704    4.3817    6.0428 H       1  UNL1        0.0000
     46 H           2.7606    4.8459    7.7392 H       1  UNL1        0.0000
     47 C          -1.2402    9.2325    0.7737 C.ar    1  UNL1        0.0000
     48 H          -0.8418    9.9762    0.1021 H       1  UNL1        0.0000
     49 C          -2.3902    6.9411    7.2753 C.ar    1  UNL1        0.0000
     50 H          -2.6758    6.2450    8.0488 H       1  UNL1        0.0000
     51 C          -2.6142    9.1158    6.3144 C.ar    1  UNL1        0.0000
     52 H          -3.0613   10.0992    6.3094 H       1  UNL1        0.0000
     53 C           2.1187    8.8554    0.6881 C.3     1  UNL1        0.0000
     54 H           3.1633    9.0939    0.9311 H       1  UNL1        0.0000
     55 C           5.5383    7.3659    5.1192 C.3     1  UNL1        0.0000
     56 H           6.5562    7.2398    4.7495 H       1  UNL1        0.0000
     57 H           5.5309    7.0764    6.1661 H       1  UNL1        0.0000
     58 H           5.2653    8.4163    5.0464 H       1  UNL1        0.0000
     59 C          -2.9816    8.1890    7.2758 C.ar    1  UNL1        0.0000
     60 H          -3.7211    8.4363    8.0251 H       1  UNL1        0.0000
     61 C           1.9808    7.3377    0.6077 C.3     1  UNL1        0.0000
     62 H           0.9719    7.0607    0.3046 H       1  UNL1        0.0000
     63 H           2.1719    6.8933    1.5842 H       1  UNL1        0.0000
     64 H           2.6842    6.9203   -0.1119 H       1  UNL1        0.0000
     65 C          -0.0935    5.4239    9.0103 C.3     1  UNL1        0.0000
     66 H          -0.2247    5.1786   10.0646 H       1  UNL1        0.0000
     67 H          -0.4454    6.4402    8.8483 H       1  UNL1        0.0000
     68 H           0.9694    5.3935    8.7861 H       1  UNL1        0.0000
     69 C          -2.5169    8.7606    0.5391 C.ar    1  UNL1        0.0000
     70 H          -3.0801    9.1240   -0.3091 H       1  UNL1        0.0000
     71 C          -1.7091    2.5702    5.0825 C.3     1  UNL1        0.0000
     72 H          -1.6623    1.8892    5.9288 H       1  UNL1        0.0000
     73 H          -0.7261    2.6115    4.6178 H       1  UNL1        0.0000
     74 H          -2.4152    2.1589    4.3616 H       1  UNL1        0.0000
     75 C          -2.1514    3.9650    5.5190 C.3     1  UNL1        0.0000
     76 H          -2.3223    4.5601    4.6123 H       1  UNL1        0.0000
     77 C          -0.0886   11.7448    2.9559 C.3     1  UNL1        0.0000
     78 H           0.3367   11.5522    3.9425 H       1  UNL1        0.0000
     79 H          -1.0553   11.2464    2.8858 H       1  UNL1        0.0000
     80 H          -0.2469   12.8176    2.8464 H       1  UNL1        0.0000
     81 C          -3.4623    3.8995    6.2923 C.3     1  UNL1        0.0000
     82 H          -4.2252    3.4402    5.6636 H       1  UNL1        0.0000
     83 H          -3.8096    4.8926    6.5685 H       1  UNL1        0.0000
     84 H          -3.3645    3.2918    7.1897 H       1  UNL1        0.0000
     85 C          -0.2407    3.0282    8.3339 C.3     1  UNL1        0.0000
     86 H           0.7639    2.9903    7.9163 H       1  UNL1        0.0000
     87 H          -0.8399    2.2639    7.8463 H       1  UNL1        0.0000
     88 H          -0.1820    2.7853    9.3950 H       1  UNL1        0.0000
     89 C          -0.8450    4.4176    8.1420 C.3     1  UNL1        0.0000
     90 H          -1.8935    4.3870    8.4533 H       1  UNL1        0.0000
     91 C           2.1607   12.0244    1.9098 C.3     1  UNL1        0.0000
     92 H           1.9610   13.0849    1.7520 H       1  UNL1        0.0000
     93 H           2.8478   11.6839    1.1376 H       1  UNL1        0.0000
     94 H           2.6376   11.8941    2.8790 H       1  UNL1        0.0000
@<TRIPOS>BOND
     1    38    37    1
     2    40    37    1
     3    37    39    1
     4    37    53    1
     5    70    69    1
     6    64    61    1
     7    48    47    1
     8    62    61    1
     9    69    47   ar
    10    69    35   ar
    11    61    53    1
    12    61    63    1
    13    53    54    1
    14    53     2    1
    15    47    12   ar
    16    16    15    1
    17    93    91    1
    18    36    35    1
    19    35     9   ar
    20    92    91    1
    21    12     2    1
    22    12     5   ar
    23    15    91    1
    24    15     2    1
    25    15    77    1
    26    91    94    1
    27    24    23    1
    28    21    19    1
    29    42    41    1
    30    20    19    1
    31     9     5   ar
    32     9    10    1
    33    23    41   ar
    34    23    29   ar
    35    22    19    1
    36    30    29    1
    37     5    31    1
    38    41    13   ar
    39    19     6    1
    40    80    77    1
    41    79    77    1
    42    29     8   ar
    43    77    78    1
    44    13    14    1
    45    13    32   ar
    46     8    32   ar
    47     8    31    1
    48    32     1    1
    49    31     4    1
    50     6     7    1
    51     6     1    1
    52     6    55    1
    53    74    71    1
    54    34    33    1
    55     1    17    1
    56    76    75    1
    57    73    71    1
    58    56    55    1
    59    58    55    1
    60    71    75    1
    61    71    72    1
    62    55    57    1
    63     4    33   ar
    64     4    11   ar
    65    33    51   ar
    66    75    81    1
    67    75     3    1
    68    82    81    1
    69    45    43    1
    70    81    83    1
    71    81    84    1
    72    11     3    1
    73    11    49   ar
    74    52    51    1
    75    51    59   ar
    76     3    89    1
    77    17    18    1
    78    17    43    1
    79    17    25    1
    80    44    43    1
    81    43    46    1
    82    27    25    1
    83    49    59   ar
    84    49    50    1
    85    59    60    1
    86    25    28    1
    87    25    26    1
    88    87    85    1
    89    86    85    1
    90    89    85    1
    91    89    90    1
    92    89    65    1
    93    85    88    1
    94    68    65    1
    95    67    65    1
    96    65    66    1
