@<TRIPOS>MOLECULE
1,2
 24 23 0 0 0
SMALL
GASTEIGER

@<TRIPOS>ATOM
      1 P           3.3061    2.0090    5.9655 P.3     1  UNL1       -0.1119
      2 P           3.0003   -0.6855    6.8196 P.3     1  UNL1       -0.1119
      3 C           3.8053    2.8823    7.5108 C.3     1  UNL1       -0.0445
      4 H           4.7813    3.3546    7.3839 H       1  UNL1        0.0277
      5 H           3.8474    2.1577    8.3239 H       1  UNL1        0.0277
      6 H           3.0645    3.6424    7.7557 H       1  UNL1        0.0277
      7 C           4.8631    1.0429    5.7088 C.3     1  UNL1       -0.0288
      8 H           4.8982    0.8086    4.6427 H       1  UNL1        0.0316
      9 H           5.7409    1.6508    5.9557 H       1  UNL1        0.0316
     10 C           3.6346    3.3856    4.7936 C.3     1  UNL1       -0.0445
     11 H           4.6760    3.7073    4.8544 H       1  UNL1        0.0277
     12 H           2.9842    4.2260    5.0346 H       1  UNL1        0.0277
     13 H           3.4031    3.0338    3.7904 H       1  UNL1        0.0277
     14 C           3.0577   -2.4851    6.4191 C.3     1  UNL1       -0.0445
     15 H           3.8847   -2.9721    6.9390 H       1  UNL1        0.0277
     16 H           3.1704   -2.6107    5.3435 H       1  UNL1        0.0277
     17 H           2.1164   -2.9414    6.7261 H       1  UNL1        0.0277
     18 C           4.7926   -0.2276    6.5379 C.3     1  UNL1       -0.0288
     19 H           5.2613   -0.0674    7.5136 H       1  UNL1        0.0316
     20 H           5.3074   -1.0595    6.0468 H       1  UNL1        0.0316
     21 C           3.1084   -0.8976    8.6589 C.3     1  UNL1       -0.0445
     22 H           3.9680   -1.5154    8.9267 H       1  UNL1        0.0277
     23 H           2.1984   -1.3638    9.0310 H       1  UNL1        0.0277
     24 H           3.2012    0.0867    9.1184 H       1  UNL1        0.0277
@<TRIPOS>BOND
     1    13    10    1
     2     8     7    1
     3    10    11    1
     4    10    12    1
     5    10     1    1
     6    16    14    1
     7     7     9    1
     8     7     1    1
     9     7    18    1
    10     1     3    1
    11    20    18    1
    12    14    17    1
    13    14     2    1
    14    14    15    1
    15    18     2    1
    16    18    19    1
    17     2    21    1
    18     4     3    1
    19     3     6    1
    20     3     5    1
    21    21    22    1
    22    21    23    1
    23    21    24    1
