@<TRIPOS>MOLECULE
1,2
 24 23 0 0 0
SMALL
GASTEIGER

@<TRIPOS>ATOM
      1 P           0.0178   -0.6715    6.2127 P.3     1  UNL1       -0.1119
      2 P           0.3580    2.0144    7.0329 P.3     1  UNL1       -0.1119
      3 C           0.5160    2.1566    8.8763 C.3     1  UNL1       -0.0445
      4 H          -0.3652    2.6317    9.3117 H       1  UNL1        0.0277
      5 H           1.3969    2.7585    9.0979 H       1  UNL1        0.0277
      6 H           0.6637    1.1707    9.3139 H       1  UNL1        0.0277
      7 C          -0.3251   -1.3939    7.8766 C.3     1  UNL1       -0.0445
      8 H          -1.3380   -1.8029    7.8994 H       1  UNL1        0.0277
      9 H          -0.2221   -0.6238    8.6390 H       1  UNL1        0.0277
     10 H           0.3893   -2.1927    8.0769 H       1  UNL1        0.0277
     11 C          -1.5635    0.2671    6.0449 C.3     1  UNL1       -0.0288
     12 H          -1.6476    0.5554    4.9940 H       1  UNL1        0.0316
     13 H          -2.4264   -0.3546    6.3090 H       1  UNL1        0.0316
     14 C          -1.4419    1.4970    6.9338 C.3     1  UNL1       -0.0288
     15 H          -1.7901    1.2657    7.9452 H       1  UNL1        0.0316
     16 H          -2.0406    2.3292    6.5507 H       1  UNL1        0.0316
     17 C          -0.3387   -2.1988    5.2398 C.3     1  UNL1       -0.0445
     18 H          -0.6758   -3.0037    5.8931 H       1  UNL1        0.0277
     19 H           0.5725   -2.5052    4.7290 H       1  UNL1        0.0277
     20 H          -1.1076   -1.9921    4.4992 H       1  UNL1        0.0277
     21 C           0.1596    3.8341    6.7720 C.3     1  UNL1       -0.0445
     22 H          -0.5571    4.2427    7.4870 H       1  UNL1        0.0277
     23 H          -0.1817    4.0337    5.7596 H       1  UNL1        0.0277
     24 H           1.1251    4.3203    6.9137 H       1  UNL1        0.0277
@<TRIPOS>BOND
     1    20    17    1
     2    19    17    1
     3    12    11    1
     4    17    18    1
     5    17     1    1
     6    23    21    1
     7    11     1    1
     8    11    13    1
     9    11    14    1
    10     1     7    1
    11    16    14    1
    12    21    24    1
    13    21     2    1
    14    21    22    1
    15    14     2    1
    16    14    15    1
    17     2     3    1
    18     7     8    1
    19     7    10    1
    20     7     9    1
    21     3     5    1
    22     3     4    1
    23     3     6    1
