@<TRIPOS>MOLECULE
1,2
 24 23 0 0 0
SMALL
GASTEIGER

@<TRIPOS>ATOM
      1 P           5.6361    2.1366    6.0035 P.3     1  UNL1       -0.1119
      2 P           8.2522    1.6783    7.0264 P.3     1  UNL1       -0.1119
      3 C          10.0166    1.2417    6.7025 C.3     1  UNL1       -0.0445
      4 H          10.6601    2.0720    6.9941 H       1  UNL1        0.0277
      5 H          10.1441    1.0535    5.6394 H       1  UNL1        0.0277
      6 H          10.2971    0.3502    7.2657 H       1  UNL1        0.0277
      7 C           8.2791    1.1704    8.8072 C.3     1  UNL1       -0.0445
      8 H           8.5666    0.1224    8.9091 H       1  UNL1        0.0277
      9 H           7.3022    1.3345    9.2586 H       1  UNL1        0.0277
     10 H           9.0044    1.7975    9.3263 H       1  UNL1        0.0277
     11 C           7.4493    0.1603    6.2815 C.3     1  UNL1       -0.0288
     12 H           8.2104   -0.4537    5.7911 H       1  UNL1        0.0316
     13 H           7.0048   -0.4301    7.0888 H       1  UNL1        0.0316
     14 C           6.3702    0.6022    5.3006 C.3     1  UNL1       -0.0288
     15 H           5.6073   -0.1680    5.1437 H       1  UNL1        0.0316
     16 H           6.8034    0.8686    4.3333 H       1  UNL1        0.0316
     17 C           4.1698    2.4171    4.9442 C.3     1  UNL1       -0.0445
     18 H           3.5652    1.5092    4.9101 H       1  UNL1        0.0277
     19 H           4.4808    2.6886    3.9400 H       1  UNL1        0.0277
     20 H           3.5842    3.2300    5.3755 H       1  UNL1        0.0277
     21 C           4.7314    1.3570    7.4069 C.3     1  UNL1       -0.0445
     22 H           4.0253    2.0725    7.8267 H       1  UNL1        0.0277
     23 H           5.4370    1.0619    8.1812 H       1  UNL1        0.0277
     24 H           4.1846    0.4808    7.0523 H       1  UNL1        0.0277
@<TRIPOS>BOND
     1    19    17    1
     2    16    14    1
     3    18    17    1
     4    17    20    1
     5    17     1    1
     6    15    14    1
     7    14     1    1
     8    14    11    1
     9     5     3    1
    10    12    11    1
    11     1    21    1
    12    11     2    1
    13    11    13    1
    14     3     4    1
    15     3     2    1
    16     3     6    1
    17     2     7    1
    18    24    21    1
    19    21    22    1
    20    21    23    1
    21     7     8    1
    22     7     9    1
    23     7    10    1
