@<TRIPOS>MOLECULE
1,2
 24 23 0 0 0
SMALL
GASTEIGER

@<TRIPOS>ATOM
      1 P           8.8059    4.8130    7.0006 P.3     1  UNL1       -0.1119
      2 P           6.0694    4.6240    7.7793 P.3     1  UNL1       -0.1119
      3 C          10.2678    5.3112    6.0064 C.3     1  UNL1       -0.0445
      4 H          10.7898    6.1453    6.4791 H       1  UNL1        0.0277
      5 H           9.9268    5.5944    5.0125 H       1  UNL1        0.0277
      6 H          10.9488    4.4640    5.9210 H       1  UNL1        0.0277
      7 C           9.6710    4.6326    8.6175 C.3     1  UNL1       -0.0445
      8 H          10.2950    3.7392    8.5861 H       1  UNL1        0.0277
      9 H           8.9305    4.5140    9.4075 H       1  UNL1        0.0277
     10 H          10.2924    5.5064    8.8221 H       1  UNL1        0.0277
     11 C           8.0603    6.4853    7.2542 C.3     1  UNL1       -0.0288
     12 H           8.7766    7.1733    7.7168 H       1  UNL1        0.0316
     13 H           7.8244    6.8531    6.2498 H       1  UNL1        0.0316
     14 C           6.7958    6.3249    8.0817 C.3     1  UNL1       -0.0288
     15 H           6.0526    7.0879    7.8304 H       1  UNL1        0.0316
     16 H           7.0276    6.4151    9.1474 H       1  UNL1        0.0316
     17 C           4.2833    5.0776    7.6364 C.3     1  UNL1       -0.0445
     18 H           3.6768    4.1797    7.7476 H       1  UNL1        0.0277
     19 H           4.0737    5.5202    6.6666 H       1  UNL1        0.0277
     20 H           4.0210    5.7815    8.4285 H       1  UNL1        0.0277
     21 C           5.9355    4.0743    9.5444 C.3     1  UNL1       -0.0445
     22 H           5.4754    4.8472   10.1627 H       1  UNL1        0.0277
     23 H           6.9263    3.8329    9.9262 H       1  UNL1        0.0277
     24 H           5.3258    3.1722    9.5812 H       1  UNL1        0.0277
@<TRIPOS>BOND
     1     5     3    1
     2     6     3    1
     3     3     4    1
     4     3     1    1
     5    13    11    1
     6    19    17    1
     7     1    11    1
     8     1     7    1
     9    11    12    1
    10    11    14    1
    11    17    18    1
    12    17     2    1
    13    17    20    1
    14     2    14    1
    15     2    21    1
    16    15    14    1
    17    14    16    1
    18     8     7    1
    19     7    10    1
    20     7     9    1
    21    21    24    1
    22    21    23    1
    23    21    22    1
