@<TRIPOS>MOLECULE
1,2
 52 55 0 0 0
SMALL
GASTEIGER

@<TRIPOS>ATOM
      1 P          -0.2588   14.2892    6.7480 P.3     1  UNL1       -0.0435
      2 P           0.4820   14.3341    3.6968 P.3     1  UNL1       -0.0435
      3 C          -1.4589   13.5338    5.5557 C.3     1  UNL1       -0.0199
      4 H          -2.0192   12.7262    6.0411 H       1  UNL1        0.0323
      5 H          -2.1603   14.3439    5.3216 H       1  UNL1        0.0323
      6 C          -0.7399   13.0611    4.2967 C.3     1  UNL1       -0.0199
      7 H          -1.4492   12.7988    3.5046 H       1  UNL1        0.0323
      8 H          -0.1282   12.1782    4.5218 H       1  UNL1        0.0323
      9 C           0.5363   12.8870    7.5956 C.ar    1  UNL1       -0.0189
     10 C           1.4404   13.2569    8.5907 C.ar    1  UNL1       -0.0538
     11 H           1.5828   14.3121    8.7942 H       1  UNL1        0.0624
     12 C           2.1410   12.2992    9.2948 C.ar    1  UNL1       -0.0612
     13 H           2.8385   12.5953   10.0646 H       1  UNL1        0.0618
     14 C           1.9547   10.9560    9.0048 C.ar    1  UNL1       -0.0617
     15 H           2.5077   10.2029    9.5466 H       1  UNL1        0.0618
     16 C           1.0617   10.5812    8.0167 C.ar    1  UNL1       -0.0612
     17 H           0.9159    9.5348    7.7889 H       1  UNL1        0.0618
     18 C           0.3510   11.5401    7.3136 C.ar    1  UNL1       -0.0538
     19 H          -0.3483   11.2243    6.5527 H       1  UNL1        0.0624
     20 C          -1.4321   14.8190    8.0412 C.ar    1  UNL1       -0.0189
     21 C          -1.9009   13.9212    8.9965 C.ar    1  UNL1       -0.0538
     22 H          -1.5503   12.8982    8.9966 H       1  UNL1        0.0624
     23 C          -2.8104   14.3388    9.9503 C.ar    1  UNL1       -0.0612
     24 H          -3.1716   13.6383   10.6897 H       1  UNL1        0.0618
     25 C          -3.2585   15.6501    9.9598 C.ar    1  UNL1       -0.0617
     26 H          -3.9682   15.9717   10.7082 H       1  UNL1        0.0618
     27 C          -2.7968   16.5443    9.0086 C.ar    1  UNL1       -0.0612
     28 H          -3.1481   17.5659    9.0104 H       1  UNL1        0.0618
     29 C          -1.8861   16.1327    8.0520 C.ar    1  UNL1       -0.0538
     30 H          -1.5324   16.8197    7.2974 H       1  UNL1        0.0624
     31 C          -0.3765   15.1643    2.3231 C.ar    1  UNL1       -0.0189
     32 C          -1.7548   15.3254    2.2653 C.ar    1  UNL1       -0.0538
     33 H          -2.3853   14.9306    3.0483 H       1  UNL1        0.0624
     34 C          -2.3258   16.0213    1.2147 C.ar    1  UNL1       -0.0612
     35 H          -3.3981   16.1484    1.1777 H       1  UNL1        0.0618
     36 C          -1.5295   16.5634    0.2207 C.ar    1  UNL1       -0.0617
     37 H          -1.9797   17.1088   -0.5958 H       1  UNL1        0.0618
     38 C          -0.1530   16.4151    0.2799 C.ar    1  UNL1       -0.0612
     39 H           0.4725   16.8448   -0.4896 H       1  UNL1        0.0618
     40 C           0.4214   15.7238    1.3291 C.ar    1  UNL1       -0.0538
     41 H           1.4968   15.6116    1.3920 H       1  UNL1        0.0624
     42 C           1.5673   13.2555    2.7027 C.ar    1  UNL1       -0.0189
     43 C           2.9372   13.2587    2.9220 C.ar    1  UNL1       -0.0538
     44 H           3.3441   13.9068    3.6865 H       1  UNL1        0.0624
     45 C           3.7675   12.4496    2.1654 C.ar    1  UNL1       -0.0612
     46 H           4.8330   12.4560    2.3423 H       1  UNL1        0.0618
     47 C           3.2315   11.6356    1.1825 C.ar    1  UNL1       -0.0617
     48 H           3.8774   11.0038    0.5904 H       1  UNL1        0.0618
     49 C           1.8642   11.6358    0.9520 C.ar    1  UNL1       -0.0612
     50 H           1.4466   11.0065    0.1791 H       1  UNL1        0.0618
     51 C           1.0343   12.4432    1.7055 C.ar    1  UNL1       -0.0538
     52 H          -0.0304   12.4550    1.5143 H       1  UNL1        0.0624
@<TRIPOS>BOND
     1    37    36    1
     2    39    38    1
     3    50    49    1
     4    36    38   ar
     5    36    34   ar
     6    38    40   ar
     7    48    47    1
     8    49    47   ar
     9    49    51   ar
    10    35    34    1
    11    47    45   ar
    12    34    32   ar
    13    40    41    1
    14    40    31   ar
    15    52    51    1
    16    51    42   ar
    17    45    46    1
    18    45    43   ar
    19    32    31   ar
    20    32    33    1
    21    31     2    1
    22    42    43   ar
    23    42     2    1
    24    43    44    1
    25     7     6    1
    26     2     6    1
    27     6     8    1
    28     6     3    1
    29     5     3    1
    30     3     4    1
    31     3     1    1
    32    19    18    1
    33     1     9    1
    34     1    20    1
    35    30    29    1
    36    18     9   ar
    37    18    16   ar
    38     9    10   ar
    39    17    16    1
    40    16    14   ar
    41    20    29   ar
    42    20    21   ar
    43    29    27   ar
    44    10    11    1
    45    10    12   ar
    46    21    22    1
    47    21    23   ar
    48    14    12   ar
    49    14    15    1
    50    27    28    1
    51    27    25   ar
    52    12    13    1
    53    23    25   ar
    54    23    24    1
    55    25    26    1
