@<TRIPOS>MOLECULE
1,2
 52 55 0 0 0
SMALL
GASTEIGER

@<TRIPOS>ATOM
      1 P           5.7145    6.3921   21.8491 P.3     1  UNL1       -0.0435
      2 P           7.5355    8.3407   23.3408 P.3     1  UNL1       -0.0435
      3 C           7.9059    6.5108   23.4502 C.3     1  UNL1       -0.0199
      4 C           7.4383    5.7903   22.1937 C.3     1  UNL1       -0.0199
      5 C           5.2329    5.4091   20.3908 C.ar    1  UNL1       -0.0189
      6 C           3.9800    4.8061   20.3082 C.ar    1  UNL1       -0.0538
      7 C           3.6169    4.1014   19.1752 C.ar    1  UNL1       -0.0612
      8 C           4.4970    3.9891   18.1120 C.ar    1  UNL1       -0.0617
      9 C           5.7390    4.5973   18.1823 C.ar    1  UNL1       -0.0612
     10 C           6.1037    5.3094   19.3097 C.ar    1  UNL1       -0.0538
     11 C           4.9042    5.4628   23.2069 C.ar    1  UNL1       -0.0189
     12 C           4.8904    4.0694   23.2035 C.ar    1  UNL1       -0.0538
     13 C           4.3572    3.3801   24.2753 C.ar    1  UNL1       -0.0612
     14 C           3.8434    4.0698   25.3635 C.ar    1  UNL1       -0.0617
     15 C           3.8627    5.4532   25.3759 C.ar    1  UNL1       -0.0612
     16 C           4.3916    6.1475   24.3014 C.ar    1  UNL1       -0.0538
     17 C           9.1847    9.0687   23.0581 C.ar    1  UNL1       -0.0189
     18 C           9.4682   10.3145   23.6140 C.ar    1  UNL1       -0.0538
     19 C          10.6817   10.9289   23.3701 C.ar    1  UNL1       -0.0612
     20 C          11.6291   10.3028   22.5759 C.ar    1  UNL1       -0.0617
     21 C          11.3522    9.0654   22.0183 C.ar    1  UNL1       -0.0612
     22 C          10.1305    8.4550   22.2437 C.ar    1  UNL1       -0.0538
     23 C           7.4091    8.6539   25.1431 C.ar    1  UNL1       -0.0189
     24 C           6.2164    9.0588   25.7251 C.ar    1  UNL1       -0.0538
     25 C           6.1365    9.2487   27.0945 C.ar    1  UNL1       -0.0612
     26 C           7.2449    9.0300   27.8922 C.ar    1  UNL1       -0.0617
     27 C           8.4368    8.6143   27.3178 C.ar    1  UNL1       -0.0612
     28 C           8.5206    8.4251   25.9527 C.ar    1  UNL1       -0.0538
     29 H           7.3407    6.1404   24.3149 H       1  UNL1        0.0323
     30 H           8.9707    6.3524   23.6436 H       1  UNL1        0.0323
     31 H           7.4472    4.7041   22.3260 H       1  UNL1        0.0323
     32 H           8.0633    6.0591   21.3390 H       1  UNL1        0.0323
     33 H           3.2886    4.8749   21.1356 H       1  UNL1        0.0624
     34 H           2.6426    3.6363   19.1250 H       1  UNL1        0.0618
     35 H           4.2140    3.4311   17.2314 H       1  UNL1        0.0618
     36 H           6.4280    4.5159   17.3541 H       1  UNL1        0.0618
     37 H           7.0613    5.8044   19.3500 H       1  UNL1        0.0624
     38 H           5.2897    3.5280   22.3559 H       1  UNL1        0.0624
     39 H           4.3440    2.2995   24.2651 H       1  UNL1        0.0618
     40 H           3.4294    3.5247   26.1994 H       1  UNL1        0.0618
     41 H           3.4662    5.9958   26.2214 H       1  UNL1        0.0618
     42 H           4.3963    7.2279   24.3060 H       1  UNL1        0.0624
     43 H           8.7344   10.7941   24.2472 H       1  UNL1        0.0624
     44 H          10.8894   11.8957   23.8049 H       1  UNL1        0.0618
     45 H          12.5817   10.7780   22.3925 H       1  UNL1        0.0618
     46 H          12.0941    8.5723   21.4059 H       1  UNL1        0.0618
     47 H           9.9093    7.5052   21.7797 H       1  UNL1        0.0624
     48 H           5.3482    9.2281   25.1070 H       1  UNL1        0.0624
     49 H           5.2041    9.5684   27.5368 H       1  UNL1        0.0618
     50 H           7.1850    9.1804   28.9604 H       1  UNL1        0.0618
     51 H           9.3036    8.4381   27.9388 H       1  UNL1        0.0618
     52 H           9.4542    8.1078   25.5079 H       1  UNL1        0.0624
@<TRIPOS>BOND
     1    35     8    1
     2    36     9    1
     3     8     9   ar
     4     8     7   ar
     5     9    10   ar
     6    34     7    1
     7     7     6   ar
     8    10    37    1
     9    10     5   ar
    10     6     5   ar
    11     6    33    1
    12     5     1    1
    13    32     4    1
    14    46    21    1
    15    47    22    1
    16     1     4    1
    17     1    11    1
    18    21    22   ar
    19    21    20   ar
    20     4    31    1
    21     4     3    1
    22    22    17   ar
    23    38    12    1
    24    45    20    1
    25    20    19   ar
    26    17     2    1
    27    17    18   ar
    28    12    11   ar
    29    12    13   ar
    30    11    16   ar
    31     2     3    1
    32     2    23    1
    33    19    18   ar
    34    19    44    1
    35     3    30    1
    36     3    29    1
    37    18    43    1
    38    39    13    1
    39    13    14   ar
    40    16    42    1
    41    16    15   ar
    42    48    24    1
    43    23    24   ar
    44    23    28   ar
    45    14    15   ar
    46    14    40    1
    47    15    41    1
    48    52    28    1
    49    24    25   ar
    50    28    27   ar
    51    25    49    1
    52    25    26   ar
    53    27    26   ar
    54    27    51    1
    55    26    50    1
