@<TRIPOS>MOLECULE
1,2
 52 55 0 0 0
SMALL
GASTEIGER

@<TRIPOS>ATOM
      1 P           6.2604   10.9726   21.3697 P.3     1  UNL1       -0.0435
      2 P           4.2460    8.9976   20.1545 P.3     1  UNL1       -0.0435
      3 C           4.6062   11.6951   20.9585 C.3     1  UNL1       -0.0199
      4 C           6.7885   12.1162   22.6934 C.ar    1  UNL1       -0.0189
      5 C           6.1560   11.9898   23.9282 C.ar    1  UNL1       -0.0538
      6 C           6.5377   12.7772   24.9971 C.ar    1  UNL1       -0.0612
      7 C           7.5551   13.7052   24.8438 C.ar    1  UNL1       -0.0617
      8 C           8.1793   13.8448   23.6155 C.ar    1  UNL1       -0.0612
      9 C           7.8044   13.0543   22.5433 C.ar    1  UNL1       -0.0538
     10 C           7.3366   11.5137   19.9981 C.ar    1  UNL1       -0.0189
     11 C           8.6707   11.1188   20.0784 C.ar    1  UNL1       -0.0538
     12 C           9.5711   11.4766   19.0945 C.ar    1  UNL1       -0.0612
     13 C           9.1459   12.2134   18.0008 C.ar    1  UNL1       -0.0617
     14 C           7.8218   12.6041   17.9091 C.ar    1  UNL1       -0.0612
     15 C           6.9203   12.2630   18.9037 C.ar    1  UNL1       -0.0538
     16 C           3.8498   10.8209   19.9594 C.3     1  UNL1       -0.0199
     17 C           4.5644    8.5214   18.4211 C.ar    1  UNL1       -0.0189
     18 C           5.5709    9.1958   17.7347 C.ar    1  UNL1       -0.0538
     19 C           5.8916    8.8455   16.4381 C.ar    1  UNL1       -0.0612
     20 C           5.2238    7.8012   15.8177 C.ar    1  UNL1       -0.0617
     21 C           4.2478    7.1027   16.5073 C.ar    1  UNL1       -0.0612
     22 C           3.9225    7.4534   17.8055 C.ar    1  UNL1       -0.0538
     23 C           2.5770    8.2904   20.3746 C.ar    1  UNL1       -0.0189
     24 C           2.3222    7.3589   21.3692 C.ar    1  UNL1       -0.0538
     25 C           1.0542    6.8288   21.5279 C.ar    1  UNL1       -0.0612
     26 C           0.0309    7.2228   20.6840 C.ar    1  UNL1       -0.0617
     27 C           0.2811    8.1418   19.6763 C.ar    1  UNL1       -0.0612
     28 C           1.5463    8.6735   19.5186 C.ar    1  UNL1       -0.0538
     29 H           4.0664   11.7305   21.9104 H       1  UNL1        0.0323
     30 H           4.7196   12.7255   20.6060 H       1  UNL1        0.0323
     31 H           5.3642   11.2650   24.0468 H       1  UNL1        0.0624
     32 H           6.0457   12.6624   25.9520 H       1  UNL1        0.0618
     33 H           7.8606   14.3185   25.6790 H       1  UNL1        0.0618
     34 H           8.9684   14.5727   23.4904 H       1  UNL1        0.0618
     35 H           8.3067   13.1679   21.5939 H       1  UNL1        0.0624
     36 H           8.9881   10.5339   20.9287 H       1  UNL1        0.0624
     37 H          10.6064   11.1811   19.1763 H       1  UNL1        0.0618
     38 H           9.8450   12.4836   17.2231 H       1  UNL1        0.0618
     39 H           7.4850   13.1815   17.0598 H       1  UNL1        0.0618
     40 H           5.8954   12.5908   18.8098 H       1  UNL1        0.0624
     41 H           2.7716   10.9513   20.0941 H       1  UNL1        0.0323
     42 H           4.1069   11.0926   18.9308 H       1  UNL1        0.0323
     43 H           6.1132    9.9901   18.2281 H       1  UNL1        0.0624
     44 H           6.6722    9.3795   15.9155 H       1  UNL1        0.0618
     45 H           5.4741    7.5250   14.8036 H       1  UNL1        0.0618
     46 H           3.7358    6.2768   16.0347 H       1  UNL1        0.0618
     47 H           3.1654    6.8942   18.3367 H       1  UNL1        0.0624
     48 H           3.1205    7.0638   22.0385 H       1  UNL1        0.0624
     49 H           0.8659    6.1122   22.3148 H       1  UNL1        0.0618
     50 H          -0.9619    6.8153   20.8078 H       1  UNL1        0.0618
     51 H          -0.5151    8.4446   19.0112 H       1  UNL1        0.0618
     52 H           1.7419    9.3772   18.7197 H       1  UNL1        0.0624
@<TRIPOS>BOND
     1    45    20    1
     2    20    19   ar
     3    20    21   ar
     4    44    19    1
     5    46    21    1
     6    19    18   ar
     7    21    22   ar
     8    39    14    1
     9    38    13    1
    10    18    43    1
    11    18    17   ar
    12    22    47    1
    13    22    17   ar
    14    14    13   ar
    15    14    15   ar
    16    13    12   ar
    17    17     2    1
    18    52    28    1
    19    40    15    1
    20    15    10   ar
    21    42    16    1
    22    51    27    1
    23    12    37    1
    24    12    11   ar
    25    28    27   ar
    26    28    23   ar
    27    27    26   ar
    28    16    41    1
    29    16     2    1
    30    16     3    1
    31    10    11   ar
    32    10     1    1
    33    11    36    1
    34     2    23    1
    35    23    24   ar
    36    30     3    1
    37    26    50    1
    38    26    25   ar
    39     3     1    1
    40     3    29    1
    41    24    25   ar
    42    24    48    1
    43     1     4    1
    44    25    49    1
    45    35     9    1
    46     9     4   ar
    47     9     8   ar
    48     4     5   ar
    49    34     8    1
    50     8     7   ar
    51     5    31    1
    52     5     6   ar
    53     7     6   ar
    54     7    33    1
    55     6    32    1
