@<TRIPOS>MOLECULE
1,2
 60 60 0 0 0
SMALL
GASTEIGER

@<TRIPOS>ATOM
      1 P           3.6554    3.8988    6.2440 P.3     1  UNL1        0.0000
      2 P           3.9202    2.4419    3.2436 P.3     1  UNL1        0.0000
      3 C           4.2801    2.1660    6.5268 C.3     1  UNL1        0.0000
      4 C           5.5206    2.0842    4.1113 C.3     1  UNL1        0.0000
      5 C           6.5786    0.7445    6.2227 C.ar    1  UNL1        0.0000
      6 C           7.1029    0.9580    7.5018 C.ar    1  UNL1        0.0000
      7 C           8.0935    0.1522    8.0297 C.ar    1  UNL1        0.0000
      8 C           8.5800   -0.9188    7.2992 C.ar    1  UNL1        0.0000
      9 C           8.0732   -1.1639    6.0344 C.ar    1  UNL1        0.0000
     10 C           7.0995   -0.3375    5.5061 C.ar    1  UNL1        0.0000
     11 C           2.2269    3.7981    7.4583 C.3     1  UNL1        0.0000
     12 C           1.0983    3.0231    6.7785 C.3     1  UNL1        0.0000
     13 C           1.7151    5.1640    7.8974 C.3     1  UNL1        0.0000
     14 C           4.9301    4.8914    7.1869 C.3     1  UNL1        0.0000
     15 C           5.1457    4.5352    8.6541 C.3     1  UNL1        0.0000
     16 C           6.2466    4.8214    6.4208 C.3     1  UNL1        0.0000
     17 C           3.3182    0.7079    2.8201 C.3     1  UNL1        0.0000
     18 C           2.6324    0.0934    4.0361 C.3     1  UNL1        0.0000
     19 C           4.3577   -0.2556    2.2592 C.3     1  UNL1        0.0000
     20 C           4.6828    2.9766    1.6100 C.3     1  UNL1        0.0000
     21 C           3.7332    2.8143    0.4300 C.3     1  UNL1        0.0000
     22 C           5.0618    4.4471    1.7754 C.3     1  UNL1        0.0000
     23 B           5.4638    1.6684    5.6261 B       1  UNL1        0.0000
     24 H           4.4393    2.0140    7.5969 H       1  UNL1        0.0000
     25 H           3.4126    1.5595    6.2514 H       1  UNL1        0.0000
     26 H           6.1357    1.4278    3.4914 H       1  UNL1        0.0000
     27 H           6.0187    3.0611    4.1077 H       1  UNL1        0.0000
     28 H           6.7422    1.7904    8.0889 H       1  UNL1        0.0000
     29 H           8.4840    0.3551    9.0167 H       1  UNL1        0.0000
     30 H           9.3479   -1.5565    7.7120 H       1  UNL1        0.0000
     31 H           8.4442   -1.9980    5.4558 H       1  UNL1        0.0000
     32 H           6.7202   -0.5502    4.5166 H       1  UNL1        0.0000
     33 H           2.5690    3.2429    8.3406 H       1  UNL1        0.0000
     34 H           0.1583    3.1627    7.3101 H       1  UNL1        0.0000
     35 H           0.9836    3.3963    5.7515 H       1  UNL1        0.0000
     36 H           1.3057    1.9550    6.7414 H       1  UNL1        0.0000
     37 H           2.5164    5.7951    8.2724 H       1  UNL1        0.0000
     38 H           1.2486    5.6717    7.0599 H       1  UNL1        0.0000
     39 H           0.9739    5.0452    8.6881 H       1  UNL1        0.0000
     40 H           4.5652    5.9235    7.1271 H       1  UNL1        0.0000
     41 H           4.2251    4.5969    9.2276 H       1  UNL1        0.0000
     42 H           5.5578    3.5351    8.7654 H       1  UNL1        0.0000
     43 H           5.8581    5.2362    9.0883 H       1  UNL1        0.0000
     44 H           6.6682    3.8171    6.4635 H       1  UNL1        0.0000
     45 H           6.0796    5.0917    5.3792 H       1  UNL1        0.0000
     46 H           6.9694    5.5206    6.8385 H       1  UNL1        0.0000
     47 H           2.5496    0.8726    2.0558 H       1  UNL1        0.0000
     48 H           1.9368    0.8076    4.4767 H       1  UNL1        0.0000
     49 H           2.0757   -0.7997    3.7534 H       1  UNL1        0.0000
     50 H           3.3699   -0.1903    4.7857 H       1  UNL1        0.0000
     51 H           3.8617   -1.1545    1.8929 H       1  UNL1        0.0000
     52 H           4.9140    0.1807    1.4333 H       1  UNL1        0.0000
     53 H           5.0580   -0.5588    3.0333 H       1  UNL1        0.0000
     54 H           5.5897    2.3878    1.4233 H       1  UNL1        0.0000
     55 H           2.7866    3.3037    0.6484 H       1  UNL1        0.0000
     56 H           4.1585    3.2765   -0.4610 H       1  UNL1        0.0000
     57 H           3.5430    1.7674    0.2039 H       1  UNL1        0.0000
     58 H           5.8892    4.5663    2.4745 H       1  UNL1        0.0000
     59 H           5.3605    4.8857    0.8234 H       1  UNL1        0.0000
     60 H           4.1914    4.9979    2.1611 H       1  UNL1        0.0000
@<TRIPOS>BOND
     1    56    21    1
     2    57    21    1
     3    21    55    1
     4    21    20    1
     5    59    22    1
     6    54    20    1
     7    52    19    1
     8    20    22    1
     9    20     2    1
    10    22    60    1
    11    22    58    1
    12    51    19    1
    13    47    17    1
    14    19    17    1
    15    19    53    1
    16    17     2    1
    17    17    18    1
    18     2     4    1
    19    26     4    1
    20    49    18    1
    21    18    48    1
    22    18    50    1
    23    27     4    1
    24     4    23    1
    25    32    10    1
    26    45    16    1
    27    31     9    1
    28    10     9   ar
    29    10     5   ar
    30    23     5    1
    31    23     3    1
    32    35    12    1
    33     9     8   ar
    34     5     6   ar
    35     1     3    1
    36     1    14    1
    37     1    11    1
    38    25     3    1
    39    16    44    1
    40    16    46    1
    41    16    14    1
    42     3    24    1
    43    36    12    1
    44    12    34    1
    45    12    11    1
    46    38    13    1
    47    40    14    1
    48    14    15    1
    49     8    30    1
    50     8     7   ar
    51    11    13    1
    52    11    33    1
    53     6     7   ar
    54     6    28    1
    55    13    37    1
    56    13    39    1
    57     7    29    1
    58    15    42    1
    59    15    43    1
    60    15    41    1
