@<TRIPOS>MOLECULE
1,2
 60 59 0 0 0
SMALL
GASTEIGER

@<TRIPOS>ATOM
      1 P           7.2979    5.9973    8.7284 P.3     1  UNL1       -0.0945
      2 P           7.2679    2.9287    8.0675 P.3     1  UNL1       -0.0945
      3 C           5.0533    2.1354    6.6086 C.3     1  UNL1       -0.0561
      4 H           4.9999    1.1674    7.0961 H       1  UNL1        0.0238
      5 H           4.5110    2.0755    5.6653 H       1  UNL1        0.0238
      6 H           4.5527    2.8699    7.2490 H       1  UNL1        0.0238
      7 C           6.4954    2.5838    6.3604 C.3     1  UNL1       -0.0168
      8 C           8.1237    6.3545   10.4091 C.3     1  UNL1       -0.0168
      9 C           8.3433    1.5462   10.2059 C.3     1  UNL1       -0.0561
     10 H           9.1787    2.2359   10.2981 H       1  UNL1        0.0238
     11 H           8.6307    0.6120   10.6867 H       1  UNL1        0.0238
     12 H           7.4831    1.9492   10.7365 H       1  UNL1        0.0238
     13 C           6.9455    7.6666    7.8717 C.3     1  UNL1       -0.0168
     14 C           8.8466    3.8436    7.6812 C.3     1  UNL1       -0.0274
     15 H           9.5449    3.5603    8.4692 H       1  UNL1        0.0317
     16 H           9.2569    3.4876    6.7325 H       1  UNL1        0.0317
     17 C           6.0492    7.3513    6.6711 C.3     1  UNL1       -0.0561
     18 H           6.5849    6.7985    5.9032 H       1  UNL1        0.0238
     19 H           5.6921    8.2778    6.2236 H       1  UNL1        0.0238
     20 H           5.1825    6.7767    6.9932 H       1  UNL1        0.0238
     21 C           8.1794    8.4182    7.3682 C.3     1  UNL1       -0.0561
     22 H           8.8697    8.6623    8.1672 H       1  UNL1        0.0238
     23 H           7.8514    9.3538    6.9154 H       1  UNL1        0.0238
     24 H           8.7148    7.8574    6.6068 H       1  UNL1        0.0238
     25 C           6.8945    0.2122    8.7228 C.3     1  UNL1       -0.0561
     26 H           5.9770    0.6026    9.1567 H       1  UNL1        0.0238
     27 H           7.2145   -0.6437    9.3170 H       1  UNL1        0.0238
     28 H           6.6921   -0.1433    7.7168 H       1  UNL1        0.0238
     29 C           7.9810    1.2877    8.7406 C.3     1  UNL1       -0.0168
     30 C           8.6912    5.3626    7.6621 C.3     1  UNL1       -0.0274
     31 H           8.4489    5.6890    6.6505 H       1  UNL1        0.0317
     32 H           9.6273    5.8480    7.9505 H       1  UNL1        0.0317
     33 C           6.1459    8.5658    8.8143 C.3     1  UNL1       -0.0561
     34 H           5.3111    8.0125    9.2373 H       1  UNL1        0.0238
     35 H           5.7429    9.4124    8.2590 H       1  UNL1        0.0238
     36 H           6.7614    8.9619    9.6167 H       1  UNL1        0.0238
     37 C           9.2277    0.7703    8.0206 C.3     1  UNL1       -0.0561
     38 H           9.0484    0.5801    6.9689 H       1  UNL1        0.0238
     39 H           9.5271   -0.1709    8.4818 H       1  UNL1        0.0238
     40 H          10.0634    1.4589    8.1108 H       1  UNL1        0.0238
     41 C           6.4242    3.9410    5.6605 C.3     1  UNL1       -0.0561
     42 H           6.0089    4.6749    6.3530 H       1  UNL1        0.0238
     43 H           5.7711    3.8800    4.7906 H       1  UNL1        0.0238
     44 H           7.4038    4.2677    5.3197 H       1  UNL1        0.0238
     45 C           9.1398    7.4906   10.4735 C.3     1  UNL1       -0.0561
     46 H           9.9199    7.3700    9.7242 H       1  UNL1        0.0238
     47 H           9.6183    7.4772   11.4532 H       1  UNL1        0.0238
     48 H           8.6751    8.4642   10.3507 H       1  UNL1        0.0238
     49 C           7.2156    1.6029    5.4403 C.3     1  UNL1       -0.0561
     50 H           8.2569    1.8849    5.2961 H       1  UNL1        0.0238
     51 H           6.7314    1.6198    4.4634 H       1  UNL1        0.0238
     52 H           7.1695    0.5828    5.8093 H       1  UNL1        0.0238
     53 C           8.8264    5.0542   10.8012 C.3     1  UNL1       -0.0561
     54 H           8.1469    4.2179   10.6287 H       1  UNL1        0.0238
     55 H           9.0929    5.0732   11.8574 H       1  UNL1        0.0238
     56 H           9.7392    4.9066   10.2290 H       1  UNL1        0.0238
     57 C           6.9972    6.5819   11.4198 C.3     1  UNL1       -0.0561
     58 H           6.4807    7.5217   11.2554 H       1  UNL1        0.0238
     59 H           7.3956    6.5824   12.4339 H       1  UNL1        0.0238
     60 H           6.2642    5.7729   11.3341 H       1  UNL1        0.0238
@<TRIPOS>BOND
     1    51    49    1
     2    43    41    1
     3    50    49    1
     4    44    41    1
     5    49    52    1
     6    49     7    1
     7    41    42    1
     8    41     7    1
     9     5     3    1
    10    18    17    1
    11    19    17    1
    12     7     3    1
    13     7     2    1
    14    24    21    1
    15     3     4    1
    16     3     6    1
    17    31    30    1
    18    17    20    1
    19    17    13    1
    20    16    14    1
    21    23    21    1
    22    38    37    1
    23    21    13    1
    24    21    22    1
    25    30    14    1
    26    30    32    1
    27    30     1    1
    28    14     2    1
    29    14    15    1
    30    28    25    1
    31    13     1    1
    32    13    33    1
    33    37    40    1
    34    37    39    1
    35    37    29    1
    36     2    29    1
    37    35    33    1
    38    25    29    1
    39    25    26    1
    40    25    27    1
    41     1     8    1
    42    29     9    1
    43    33    34    1
    44    33    36    1
    45    46    45    1
    46     9    10    1
    47     9    11    1
    48     9    12    1
    49    56    53    1
    50    48    45    1
    51     8    45    1
    52     8    53    1
    53     8    57    1
    54    45    47    1
    55    54    53    1
    56    53    55    1
    57    58    57    1
    58    60    57    1
    59    57    59    1
