@<TRIPOS>MOLECULE
1,2
 24 23 0 0 0
SMALL
GASTEIGER

@<TRIPOS>ATOM
      1 P          12.6886   10.6991    2.0124 P.3     1  UNL1       -0.1119
      2 P           9.6683    9.8320    2.1913 P.3     1  UNL1       -0.1119
      3 C          14.0245   11.1333    0.8422 C.3     1  UNL1       -0.0445
      4 C          13.3087   11.5240    3.5307 C.3     1  UNL1       -0.0445
      5 C          11.3704   11.8796    1.4780 C.3     1  UNL1       -0.0288
      6 C          10.1232   11.6278    2.3094 C.3     1  UNL1       -0.0288
      7 C           8.5392    9.8528    0.7550 C.3     1  UNL1       -0.0445
      8 C           8.4802    9.7233    3.5864 C.3     1  UNL1       -0.0445
      9 H          14.9308   10.5992    1.1250 H       1  UNL1        0.0277
     10 H          13.7189   10.8117   -0.1478 H       1  UNL1        0.0277
     11 H          14.2127   12.2073    0.8485 H       1  UNL1        0.0277
     12 H          14.2162   11.0141    3.8500 H       1  UNL1        0.0277
     13 H          13.5208   12.5762    3.3406 H       1  UNL1        0.0277
     14 H          12.5696   11.4226    4.3216 H       1  UNL1        0.0277
     15 H          11.7231   12.9123    1.5726 H       1  UNL1        0.0316
     16 H          11.1743   11.6607    0.4264 H       1  UNL1        0.0316
     17 H           9.2811   12.2479    1.9840 H       1  UNL1        0.0316
     18 H          10.3268   11.8349    3.3643 H       1  UNL1        0.0316
     19 H           7.7253   10.5614    0.9097 H       1  UNL1        0.0277
     20 H           9.1141   10.1255   -0.1259 H       1  UNL1        0.0277
     21 H           8.1371    8.8513    0.6127 H       1  UNL1        0.0277
     22 H           9.0506    9.6743    4.5124 H       1  UNL1        0.0277
     23 H           7.8167   10.5881    3.6011 H       1  UNL1        0.0277
     24 H           7.8953    8.8104    3.4803 H       1  UNL1        0.0277
@<TRIPOS>BOND
     1    10     3    1
     2    20     7    1
     3    16     5    1
     4    21     7    1
     5     7    19    1
     6     7     2    1
     7     3    11    1
     8     3     9    1
     9     3     1    1
    10     5    15    1
    11     5     1    1
    12     5     6    1
    13    17     6    1
    14     1     4    1
    15     2     6    1
    16     2     8    1
    17     6    18    1
    18    13     4    1
    19    24     8    1
    20     4    12    1
    21     4    14    1
    22     8    23    1
    23     8    22    1
