@<TRIPOS>MOLECULE
1,2
 24 23 0 0 0
SMALL
GASTEIGER

@<TRIPOS>ATOM
      1 P          10.7355    6.2743    2.9015 P.3     1  UNL1       -0.1119
      2 P          13.7671    7.1447    2.6435 P.3     1  UNL1       -0.1119
      3 C           9.4877    5.3800    1.9065 C.3     1  UNL1       -0.0445
      4 C           9.9713    6.1317    4.5643 C.3     1  UNL1       -0.0445
      5 C          12.0797    5.0075    3.0368 C.3     1  UNL1       -0.0288
      6 C          13.3122    5.6552    3.6473 C.3     1  UNL1       -0.0288
      7 C          15.0719    7.8522    3.7232 C.3     1  UNL1       -0.0445
      8 C          14.7697    6.4185    1.2979 C.3     1  UNL1       -0.0445
      9 H           8.5455    5.9233    1.9715 H       1  UNL1        0.0277
     10 H           9.8150    5.3658    0.8726 H       1  UNL1        0.0277
     11 H           9.3499    4.3620    2.2710 H       1  UNL1        0.0277
     12 H          10.6811    6.4689    5.3155 H       1  UNL1        0.0277
     13 H           9.1000    6.7832    4.6028 H       1  UNL1        0.0277
     14 H           9.6742    5.1008    4.7584 H       1  UNL1        0.0277
     15 H          11.7370    4.1477    3.6221 H       1  UNL1        0.0316
     16 H          12.3037    4.6874    2.0189 H       1  UNL1        0.0316
     17 H          14.1575    4.9603    3.6952 H       1  UNL1        0.0316
     18 H          13.0932    6.0171    4.6563 H       1  UNL1        0.0316
     19 H          15.7792    7.0833    4.0348 H       1  UNL1        0.0277
     20 H          15.5951    8.6366    3.1771 H       1  UNL1        0.0277
     21 H          14.5873    8.2879    4.5954 H       1  UNL1        0.0277
     22 H          15.4958    5.7062    1.6903 H       1  UNL1        0.0277
     23 H          14.1067    5.9319    0.5874 H       1  UNL1        0.0277
     24 H          15.2865    7.2278    0.7847 H       1  UNL1        0.0277
@<TRIPOS>BOND
     1    23     8    1
     2    24     8    1
     3    10     3    1
     4     8    22    1
     5     8     2    1
     6     3     9    1
     7     3    11    1
     8     3     1    1
     9    16     5    1
    10     2     6    1
    11     2     7    1
    12     1     5    1
    13     1     4    1
    14     5    15    1
    15     5     6    1
    16    20     7    1
    17     6    17    1
    18     6    18    1
    19     7    19    1
    20     7    21    1
    21     4    13    1
    22     4    14    1
    23     4    12    1
