@<TRIPOS>MOLECULE
1,2
 24 23 0 0 0
SMALL
GASTEIGER

@<TRIPOS>ATOM
      1 P           5.7183    2.7050    3.1844 P.3     1  UNL1       -0.1119
      2 P           6.6876    5.4460    2.8510 P.3     1  UNL1       -0.1119
      3 C           7.5687    2.8036    3.2631 C.3     1  UNL1       -0.0288
      4 H           7.9464    2.1755    4.0756 H       1  UNL1        0.0316
      5 H           7.9294    2.3959    2.3177 H       1  UNL1        0.0316
      6 C           8.0155    4.2551    3.4274 C.3     1  UNL1       -0.0288
      7 H           8.9372    4.4459    2.8727 H       1  UNL1        0.0316
      8 H           8.2088    4.4699    4.4818 H       1  UNL1        0.0316
      9 C           5.4519    0.9635    2.6994 C.3     1  UNL1       -0.0445
     10 H           6.0682    0.2918    3.2967 H       1  UNL1        0.0277
     11 H           5.6920    0.8616    1.6439 H       1  UNL1        0.0277
     12 H           4.3996    0.7241    2.8430 H       1  UNL1        0.0277
     13 C           5.3206    2.5870    4.9778 C.3     1  UNL1       -0.0445
     14 H           5.8465    1.7532    5.4420 H       1  UNL1        0.0277
     15 H           4.2486    2.4472    5.0934 H       1  UNL1        0.0277
     16 H           5.6042    3.5168    5.4663 H       1  UNL1        0.0277
     17 C           6.5763    6.5163    4.3486 C.3     1  UNL1       -0.0445
     18 H           7.5683    6.7989    4.7006 H       1  UNL1        0.0277
     19 H           6.0453    5.9835    5.1341 H       1  UNL1        0.0277
     20 H           6.0171    7.4153    4.1017 H       1  UNL1        0.0277
     21 C           7.6001    6.6218    1.7735 C.3     1  UNL1       -0.0445
     22 H           8.5028    6.9897    2.2612 H       1  UNL1        0.0277
     23 H           6.9324    7.4572    1.5653 H       1  UNL1        0.0277
     24 H           7.8521    6.1415    0.8330 H       1  UNL1        0.0277
@<TRIPOS>BOND
     1    24    21    1
     2    23    21    1
     3    11     9    1
     4    21    22    1
     5    21     2    1
     6     5     3    1
     7     9    12    1
     8     9     1    1
     9     9    10    1
    10     2     6    1
    11     2    17    1
    12     7     6    1
    13     1     3    1
    14     1    13    1
    15     3     6    1
    16     3     4    1
    17     6     8    1
    18    20    17    1
    19    17    18    1
    20    17    19    1
    21    13    15    1
    22    13    14    1
    23    13    16    1
