@<TRIPOS>MOLECULE
1,2
 49 50 0 0 0
SMALL
GASTEIGER

@<TRIPOS>ATOM
      1 P           1.5925   -4.6334    1.8843 P.3     1  UNL1        0.0000
      2 P           4.1161   -3.7526   -0.3646 P.3     1  UNL1        0.0000
      3 O           3.3483   -2.9018    2.8880 O.3     1  UNL1        0.0000
      4 O           3.8055   -1.2779    0.7003 O.3     1  UNL1        0.0000
      5 SI          3.8881   -1.4572    2.3197 Si      1  UNL1        0.0000
      6 C           2.0181   -3.2891    3.0977 C.3     1  UNL1        0.0000
      7 C           4.5466   -1.9458   -0.2735 C.3     1  UNL1        0.0000
      8 C           2.4549   -6.0448    2.6926 C.3     1  UNL1        0.0000
      9 C          -0.1273   -4.9538    2.4443 C.3     1  UNL1        0.0000
     10 C           4.9850   -4.1389   -1.9374 C.3     1  UNL1        0.0000
     11 C           5.3547   -4.4585    0.8057 C.3     1  UNL1        0.0000
     12 C           2.8200   -0.0404    2.9517 C.ar    1  UNL1        0.0000
     13 C           2.7004    0.1516    4.3258 C.ar    1  UNL1        0.0000
     14 C           1.8991    1.1541    4.8400 C.ar    1  UNL1        0.0000
     15 C           1.1985    1.9864    3.9825 C.ar    1  UNL1        0.0000
     16 C           1.3080    1.8107    2.6137 C.ar    1  UNL1        0.0000
     17 C           2.1138    0.8081    2.1042 C.ar    1  UNL1        0.0000
     18 C           5.6860   -1.4773    2.9046 C.ar    1  UNL1        0.0000
     19 C           6.1661   -2.3594    3.8686 C.ar    1  UNL1        0.0000
     20 C           7.4949   -2.3455    4.2529 C.ar    1  UNL1        0.0000
     21 C           8.3732   -1.4419    3.6793 C.ar    1  UNL1        0.0000
     22 C           7.9128   -0.5504    2.7246 C.ar    1  UNL1        0.0000
     23 C           6.5827   -0.5697    2.3466 C.ar    1  UNL1        0.0000
     24 H           1.9230   -3.6539    4.1306 H       1  UNL1        0.0000
     25 H           1.3314   -2.4459    2.9554 H       1  UNL1        0.0000
     26 H           4.2839   -1.5006   -1.2422 H       1  UNL1        0.0000
     27 H           5.6239   -1.8155   -0.0910 H       1  UNL1        0.0000
     28 H           2.0847   -6.2010    3.7062 H       1  UNL1        0.0000
     29 H           2.2803   -6.9402    2.0965 H       1  UNL1        0.0000
     30 H           3.5244   -5.8448    2.7208 H       1  UNL1        0.0000
     31 H          -0.1807   -5.0728    3.5274 H       1  UNL1        0.0000
     32 H          -0.7584   -4.1224    2.1324 H       1  UNL1        0.0000
     33 H          -0.4867   -5.8589    1.9563 H       1  UNL1        0.0000
     34 H           6.0126   -3.7731   -1.9227 H       1  UNL1        0.0000
     35 H           4.9845   -5.2193   -2.0759 H       1  UNL1        0.0000
     36 H           4.4430   -3.6867   -2.7661 H       1  UNL1        0.0000
     37 H           6.3597   -4.1117    0.5618 H       1  UNL1        0.0000
     38 H           5.1085   -4.1639    1.8231 H       1  UNL1        0.0000
     39 H           5.3166   -5.5453    0.7254 H       1  UNL1        0.0000
     40 H           3.2467   -0.4964    4.9967 H       1  UNL1        0.0000
     41 H           1.8193    1.2877    5.9094 H       1  UNL1        0.0000
     42 H           0.5698    2.7692    4.3816 H       1  UNL1        0.0000
     43 H           0.7621    2.4559    1.9409 H       1  UNL1        0.0000
     44 H           2.1944    0.6699    1.0378 H       1  UNL1        0.0000
     45 H           5.4839   -3.0645    4.3196 H       1  UNL1        0.0000
     46 H           7.8476   -3.0393    5.0025 H       1  UNL1        0.0000
     47 H           9.4115   -1.4298    3.9772 H       1  UNL1        0.0000
     48 H           8.5920    0.1606    2.2767 H       1  UNL1        0.0000
     49 H           6.2252    0.1325    1.6073 H       1  UNL1        0.0000
@<TRIPOS>BOND
     1    36    10    1
     2    35    10    1
     3    10    34    1
     4    10     2    1
     5    26     7    1
     6     2     7    1
     7     2    11    1
     8     7    27    1
     9     7     4    1
    10    37    11    1
    11     4     5    1
    12    39    11    1
    13    11    38    1
    14    44    17    1
    15    49    23    1
    16     1     9    1
    17     1     8    1
    18     1     6    1
    19    43    16    1
    20    33     9    1
    21    29     8    1
    22    17    16   ar
    23    17    12   ar
    24    32     9    1
    25    48    22    1
    26     5     3    1
    27     5    18    1
    28     5    12    1
    29    23    22   ar
    30    23    18   ar
    31     9    31    1
    32    16    15   ar
    33     8    30    1
    34     8    28    1
    35    22    21   ar
    36     3     6    1
    37    18    19   ar
    38    12    13   ar
    39    25     6    1
    40     6    24    1
    41    21    47    1
    42    21    20   ar
    43    19    20   ar
    44    19    45    1
    45    15    42    1
    46    15    14   ar
    47    20    46    1
    48    13    14   ar
    49    13    40    1
    50    14    41    1
