@<TRIPOS>MOLECULE
1,2
 24 23 0 0 0
SMALL
GASTEIGER

@<TRIPOS>ATOM
      1 P          -7.1284   23.9050    4.0208 P.3     1  UNL1       -0.1119
      2 P          -9.1226   26.1990    4.7293 P.3     1  UNL1       -0.1119
      3 C          -7.1124   22.0759    3.9098 C.3     1  UNL1       -0.0445
      4 H          -8.1413   21.7264    3.8459 H       1  UNL1        0.0277
      5 H          -6.6191   21.6351    4.7770 H       1  UNL1        0.0277
      6 H          -6.5882   21.7801    3.0019 H       1  UNL1        0.0277
      7 C          -5.3307   24.2460    4.1557 C.3     1  UNL1       -0.0445
      8 H          -5.1898   25.3161    4.3015 H       1  UNL1        0.0277
      9 H          -4.8610   23.9699    3.2115 H       1  UNL1        0.0277
     10 H          -4.8723   23.6863    4.9715 H       1  UNL1        0.0277
     11 C          -7.6591   24.1082    5.7863 C.3     1  UNL1       -0.0288
     12 H          -8.5669   23.5086    5.9108 H       1  UNL1        0.0316
     13 H          -6.8922   23.7290    6.4708 H       1  UNL1        0.0316
     14 C          -7.9663   25.5739    6.0394 C.3     1  UNL1       -0.0288
     15 H          -7.0508   26.1680    5.9451 H       1  UNL1        0.0316
     16 H          -8.3891   25.7360    7.0373 H       1  UNL1        0.0316
     17 C          -9.0362   27.9910    5.1094 C.3     1  UNL1       -0.0445
     18 H          -8.1066   28.3836    4.6995 H       1  UNL1        0.0277
     19 H          -9.0715   28.1606    6.1862 H       1  UNL1        0.0277
     20 H          -9.8748   28.4983    4.6336 H       1  UNL1        0.0277
     21 C         -10.7557   25.7934    5.4585 C.3     1  UNL1       -0.0445
     22 H         -10.8865   24.7134    5.4531 H       1  UNL1        0.0277
     23 H         -11.5269   26.2300    4.8241 H       1  UNL1        0.0277
     24 H         -10.8495   26.1804    6.4738 H       1  UNL1        0.0277
@<TRIPOS>BOND
     1     6     3    1
     2     9     7    1
     3     4     3    1
     4     3     1    1
     5     3     5    1
     6     1     7    1
     7     1    11    1
     8     7     8    1
     9     7    10    1
    10    20    17    1
    11    18    17    1
    12     2    17    1
    13     2    21    1
    14     2    14    1
    15    23    21    1
    16    17    19    1
    17    22    21    1
    18    21    24    1
    19    11    12    1
    20    11    14    1
    21    11    13    1
    22    15    14    1
    23    14    16    1
