@<TRIPOS>MOLECULE
1,2
 24 23 0 0 0
SMALL
GASTEIGER

@<TRIPOS>ATOM
      1 P          -9.6527   26.8161    1.2200 P.3     1  UNL1       -0.1119
      2 P          -7.6122   24.5641    0.5239 P.3     1  UNL1       -0.1119
      3 C          -9.5951   28.6353    1.4471 C.3     1  UNL1       -0.0445
      4 H          -8.5702   28.9191    1.6822 H       1  UNL1        0.0277
      5 H         -10.2371   28.9106    2.2830 H       1  UNL1        0.0277
      6 H          -9.9299   29.1505    0.5460 H       1  UNL1        0.0277
      7 C         -11.4456   26.5827    0.9173 C.3     1  UNL1       -0.0445
      8 H         -11.6207   25.5514    0.6175 H       1  UNL1        0.0277
      9 H         -11.8165   27.2673    0.1536 H       1  UNL1        0.0277
     10 H         -11.9724   26.7558    1.8555 H       1  UNL1        0.0277
     11 C          -8.9701   26.7231   -0.5042 C.3     1  UNL1       -0.0288
     12 H          -9.6736   27.1603   -1.2216 H       1  UNL1        0.0316
     13 H          -8.0532   27.3224   -0.5027 H       1  UNL1        0.0316
     14 C          -8.6402   25.2800   -0.8438 C.3     1  UNL1       -0.0288
     15 H          -8.1218   25.1974   -1.8055 H       1  UNL1        0.0316
     16 H          -9.5590   24.6867   -0.8889 H       1  UNL1        0.0316
     17 C          -7.5655   22.8091   -0.0029 C.3     1  UNL1       -0.0445
     18 H          -6.7926   22.2909    0.5638 H       1  UNL1        0.0277
     19 H          -7.3541   22.7249   -1.0696 H       1  UNL1        0.0277
     20 H          -8.5279   22.3548    0.2256 H       1  UNL1        0.0277
     21 C          -5.9354   25.1071    0.0138 C.3     1  UNL1       -0.0445
     22 H          -5.8402   26.1744    0.2089 H       1  UNL1        0.0277
     23 H          -5.7444   24.8937   -1.0385 H       1  UNL1        0.0277
     24 H          -5.2048   24.5861    0.6326 H       1  UNL1        0.0277
@<TRIPOS>BOND
     1    15    14    1
     2    12    11    1
     3    19    17    1
     4    23    21    1
     5    16    14    1
     6    14    11    1
     7    14     2    1
     8    11    13    1
     9    11     1    1
    10    17    20    1
    11    17     2    1
    12    17    18    1
    13    21    22    1
    14    21     2    1
    15    21    24    1
    16     9     7    1
    17     6     3    1
    18     8     7    1
    19     7     1    1
    20     7    10    1
    21     1     3    1
    22     3     4    1
    23     3     5    1
