@<TRIPOS>MOLECULE
1,2
 60 63 0 0 0
SMALL
GASTEIGER

@<TRIPOS>ATOM
      1 P           0.2093    0.1008   10.9777 P.3     1  UNL1        0.0000
      2 P           0.9334   -1.9023   12.7263 P.3     1  UNL1        0.0000
      3 SI          2.0385   -2.2654    9.7299 Si      1  UNL1        0.0000
      4 C           1.4171   -1.2001   11.1577 C.3     1  UNL1        0.0000
      5 C           1.0666    1.5420   10.2522 C.ar    1  UNL1        0.0000
      6 C           0.3236    2.6122    9.7558 C.ar    1  UNL1        0.0000
      7 C           0.9670    3.7479    9.3017 C.ar    1  UNL1        0.0000
      8 C           2.3507    3.8309    9.3484 C.ar    1  UNL1        0.0000
      9 C           3.0913    2.7788    9.8619 C.ar    1  UNL1        0.0000
     10 C           2.4510    1.6433   10.3233 C.ar    1  UNL1        0.0000
     11 C          -1.0256   -0.2116    9.6530 C.ar    1  UNL1        0.0000
     12 C          -2.2584   -0.7304   10.0380 C.ar    1  UNL1        0.0000
     13 C          -3.2122   -1.0487    9.0886 C.ar    1  UNL1        0.0000
     14 C          -2.9410   -0.8489    7.7442 C.ar    1  UNL1        0.0000
     15 C          -1.7160   -0.3317    7.3539 C.ar    1  UNL1        0.0000
     16 C          -0.7577   -0.0183    8.3011 C.ar    1  UNL1        0.0000
     17 C           2.4870   -2.1390   13.6808 C.ar    1  UNL1        0.0000
     18 C           3.7109   -1.7009   13.1920 C.ar    1  UNL1        0.0000
     19 C           4.8527   -1.8086   13.9655 C.ar    1  UNL1        0.0000
     20 C           4.7792   -2.3382   15.2433 C.ar    1  UNL1        0.0000
     21 C           3.5571   -2.7497   15.7518 C.ar    1  UNL1        0.0000
     22 C           2.4157   -2.6410   14.9794 C.ar    1  UNL1        0.0000
     23 C           0.4352   -3.6522   12.4505 C.ar    1  UNL1        0.0000
     24 C          -0.6468   -3.8234   11.5879 C.ar    1  UNL1        0.0000
     25 C          -1.1317   -5.0836   11.3007 C.ar    1  UNL1        0.0000
     26 C          -0.5330   -6.1984   11.8676 C.ar    1  UNL1        0.0000
     27 C           0.5528   -6.0394   12.7112 C.ar    1  UNL1        0.0000
     28 C           1.0352   -4.7759   13.0069 C.ar    1  UNL1        0.0000
     29 C           3.1055   -3.7123   10.3849 C.3     1  UNL1        0.0000
     30 C           3.1418   -1.1802    8.6044 C.3     1  UNL1        0.0000
     31 C           0.7573   -3.1043    8.5774 C.3     1  UNL1        0.0000
     32 H          -0.7562    2.5453    9.7358 H       1  UNL1        0.0000
     33 H           0.3900    4.5748    8.9137 H       1  UNL1        0.0000
     34 H           2.8498    4.7197    8.9910 H       1  UNL1        0.0000
     35 H           4.1688    2.8475    9.9062 H       1  UNL1        0.0000
     36 H           3.0112    0.8145   10.7327 H       1  UNL1        0.0000
     37 H          -2.4678   -0.8495   11.1006 H       1  UNL1        0.0000
     38 H          -4.1705   -1.4436    9.3939 H       1  UNL1        0.0000
     39 H          -3.6862   -1.0913    7.0011 H       1  UNL1        0.0000
     40 H          -1.5059   -0.1747    6.3058 H       1  UNL1        0.0000
     41 H           0.1998    0.3809    7.9976 H       1  UNL1        0.0000
     42 H           3.7516   -1.2793   12.1968 H       1  UNL1        0.0000
     43 H           5.8027   -1.4752   13.5737 H       1  UNL1        0.0000
     44 H           5.6701   -2.4212   15.8478 H       1  UNL1        0.0000
     45 H           3.4956   -3.1487   16.7544 H       1  UNL1        0.0000
     46 H           1.4563   -2.9472   15.3810 H       1  UNL1        0.0000
     47 H          -1.0852   -2.9470   11.1199 H       1  UNL1        0.0000
     48 H          -1.9717   -5.2008   10.6308 H       1  UNL1        0.0000
     49 H          -0.9065   -7.1867   11.6445 H       1  UNL1        0.0000
     50 H           1.0317   -6.9067   13.1426 H       1  UNL1        0.0000
     51 H           1.8893   -4.6717   13.6596 H       1  UNL1        0.0000
     52 H           3.8851   -3.9574    9.6710 H       1  UNL1        0.0000
     53 H           3.5840   -3.4944   11.3327 H       1  UNL1        0.0000
     54 H           2.4993   -4.6015   10.5248 H       1  UNL1        0.0000
     55 H           3.4229   -1.7355    7.7156 H       1  UNL1        0.0000
     56 H           4.0581   -0.8759    9.0998 H       1  UNL1        0.0000
     57 H           2.6300   -0.2796    8.2825 H       1  UNL1        0.0000
     58 H           0.0127   -2.4081    8.2076 H       1  UNL1        0.0000
     59 H           0.2356   -3.9106    9.0831 H       1  UNL1        0.0000
     60 H           1.2623   -3.5324    7.7163 H       1  UNL1        0.0000
@<TRIPOS>BOND
     1    40    15    1
     2    39    14    1
     3    15    14   ar
     4    15    16   ar
     5    55    30    1
     6    60    31    1
     7    14    13   ar
     8    41    16    1
     9    58    31    1
    10    57    30    1
    11    16    11   ar
    12    31    59    1
    13    31     3    1
    14    30    56    1
    15    30     3    1
    16    33     7    1
    17    34     8    1
    18    13    38    1
    19    13    12   ar
    20     7     8   ar
    21     7     6   ar
    22     8     9   ar
    23    11    12   ar
    24    11     1    1
    25    52    29    1
    26     3    29    1
    27     3     4    1
    28    32     6    1
    29     6     5   ar
    30     9    35    1
    31     9    10   ar
    32    12    37    1
    33     5    10   ar
    34     5     1    1
    35    10    36    1
    36    29    54    1
    37    29    53    1
    38    48    25    1
    39     1     4    1
    40    47    24    1
    41     4     2    1
    42    25    24   ar
    43    25    26   ar
    44    24    23   ar
    45    49    26    1
    46    26    27   ar
    47    42    18    1
    48    23     2    1
    49    23    28   ar
    50    27    28   ar
    51    27    50    1
    52     2    17    1
    53    28    51    1
    54    18    17   ar
    55    18    19   ar
    56    43    19    1
    57    17    22   ar
    58    19    20   ar
    59    22    46    1
    60    22    21   ar
    61    20    21   ar
    62    20    44    1
    63    21    45    1
