@<TRIPOS>MOLECULE
1,2
 52 55 0 0 0
SMALL
GASTEIGER

@<TRIPOS>ATOM
      1 P           4.1728    2.4999    7.1027 P.3     1  UNL1       -0.0435
      2 P           5.4816    5.0432    6.6443 P.3     1  UNL1       -0.0435
      3 C           3.6626    3.3156    5.4967 C.3     1  UNL1       -0.0199
      4 H           4.1767    2.8160    4.6729 H       1  UNL1        0.0323
      5 H           2.5869    3.1825    5.3505 H       1  UNL1        0.0323
      6 C           4.0300    4.7994    5.5171 C.3     1  UNL1       -0.0199
      7 H           3.2071    5.3802    5.9355 H       1  UNL1        0.0323
      8 H           4.2586    5.1742    4.5140 H       1  UNL1        0.0323
      9 C           2.6232    1.7337    7.6920 C.ar    1  UNL1       -0.0189
     10 C           2.2872    1.9142    9.0260 C.ar    1  UNL1       -0.0538
     11 H           2.9285    2.5434    9.6253 H       1  UNL1        0.0624
     12 C           1.1495    1.3230    9.5434 C.ar    1  UNL1       -0.0612
     13 H           0.8863    1.4683   10.5813 H       1  UNL1        0.0618
     14 C           0.3456    0.5447    8.7260 C.ar    1  UNL1       -0.0617
     15 H          -0.5456    0.0825    9.1253 H       1  UNL1        0.0618
     16 C           0.6831    0.3549    7.3951 C.ar    1  UNL1       -0.0612
     17 H           0.0564   -0.2569    6.7618 H       1  UNL1        0.0618
     18 C           1.8226    0.9429    6.8764 C.ar    1  UNL1       -0.0538
     19 H           2.0977    0.7848    5.8415 H       1  UNL1        0.0624
     20 C           4.9744    0.9427    6.5619 C.ar    1  UNL1       -0.0189
     21 C           4.9817   -0.0846    7.5055 C.ar    1  UNL1       -0.0538
     22 H           4.4571    0.0622    8.4403 H       1  UNL1        0.0624
     23 C           5.6440   -1.2708    7.2596 C.ar    1  UNL1       -0.0612
     24 H           5.6356   -2.0579    7.9998 H       1  UNL1        0.0618
     25 C           6.3239   -1.4484    6.0646 C.ar    1  UNL1       -0.0617
     26 H           6.8435   -2.3746    5.8679 H       1  UNL1        0.0618
     27 C           6.3393   -0.4293    5.1287 C.ar    1  UNL1       -0.0612
     28 H           6.8745   -0.5576    4.1986 H       1  UNL1        0.0618
     29 C           5.6759    0.7605    5.3761 C.ar    1  UNL1       -0.0538
     30 H           5.7233    1.5454    4.6352 H       1  UNL1        0.0624
     31 C           5.6560    6.8388    6.8239 C.ar    1  UNL1       -0.0189
     32 C           4.5990    7.7401    6.7897 C.ar    1  UNL1       -0.0538
     33 H           3.6027    7.4002    6.5529 H       1  UNL1        0.0624
     34 C           4.8185    9.0752    7.0810 C.ar    1  UNL1       -0.0612
     35 H           3.9935    9.7722    7.0506 H       1  UNL1        0.0618
     36 C           6.0853    9.5189    7.4216 C.ar    1  UNL1       -0.0617
     37 H           6.2501   10.5614    7.6517 H       1  UNL1        0.0618
     38 C           7.1411    8.6216    7.4773 C.ar    1  UNL1       -0.0612
     39 H           8.1284    8.9636    7.7533 H       1  UNL1        0.0618
     40 C           6.9245    7.2893    7.1864 C.ar    1  UNL1       -0.0538
     41 H           7.7364    6.5741    7.2333 H       1  UNL1        0.0624
     42 C           6.8211    4.6958    5.4424 C.ar    1  UNL1       -0.0189
     43 C           7.1707    5.5770    4.4243 C.ar    1  UNL1       -0.0538
     44 H           6.6752    6.5363    4.3519 H       1  UNL1        0.0624
     45 C           8.1529    5.2281    3.5156 C.ar    1  UNL1       -0.0612
     46 H           8.4261    5.9155    2.7277 H       1  UNL1        0.0618
     47 C           8.7870    3.9987    3.6111 C.ar    1  UNL1       -0.0617
     48 H           9.5539    3.7317    2.8985 H       1  UNL1        0.0618
     49 C           8.4372    3.1152    4.6186 C.ar    1  UNL1       -0.0612
     50 H           8.9266    2.1545    4.6938 H       1  UNL1        0.0618
     51 C           7.4582    3.4660    5.5309 C.ar    1  UNL1       -0.0538
     52 H           7.1682    2.7943    6.3280 H       1  UNL1        0.0624
@<TRIPOS>BOND
     1    46    45    1
     2    48    47    1
     3    45    47   ar
     4    45    43   ar
     5    47    49   ar
     6    28    27    1
     7    44    43    1
     8    43    42   ar
     9     8     6    1
    10    49    50    1
    11    49    51   ar
    12    30    29    1
    13     4     3    1
    14    27    29   ar
    15    27    25   ar
    16     5     3    1
    17    29    20   ar
    18    42    51   ar
    19    42     2    1
    20     3     6    1
    21     3     1    1
    22     6     7    1
    23     6     2    1
    24    51    52    1
    25    19    18    1
    26    26    25    1
    27    25    23   ar
    28    33    32    1
    29    20     1    1
    30    20    21   ar
    31     2    31    1
    32    17    16    1
    33    32    31   ar
    34    32    34   ar
    35    31    40   ar
    36    18    16   ar
    37    18     9   ar
    38    35    34    1
    39    34    36   ar
    40     1     9    1
    41    40    41    1
    42    40    38   ar
    43    23    21   ar
    44    23    24    1
    45    16    14   ar
    46    36    38   ar
    47    36    37    1
    48    38    39    1
    49    21    22    1
    50     9    10   ar
    51    14    15    1
    52    14    12   ar
    53    10    12   ar
    54    10    11    1
    55    12    13    1
