@<TRIPOS>MOLECULE
1,2
 24 23 0 0 0
SMALL
GASTEIGER

@<TRIPOS>ATOM
      1 P           1.6459   14.9391    1.5607 P.3     1  UNL1       -0.1119
      2 P           0.5819   11.9586    1.1228 P.3     1  UNL1       -0.1119
      3 C           2.3994   13.8471    0.2427 C.3     1  UNL1       -0.0288
      4 C           1.3588   16.4549    0.5521 C.3     1  UNL1       -0.0445
      5 C           3.2005   15.3716    2.4276 C.3     1  UNL1       -0.0445
      6 C           1.3659   12.8753   -0.2970 C.3     1  UNL1       -0.0288
      7 C          -0.4478   10.8073    0.1109 C.3     1  UNL1       -0.0445
      8 C           1.9873   10.8300    1.5178 C.3     1  UNL1       -0.0445
      9 H           3.2043   13.2853    0.7294 H       1  UNL1        0.0316
     10 H           2.8299   14.4576   -0.5578 H       1  UNL1        0.0316
     11 H           2.2525   16.7346   -0.0069 H       1  UNL1        0.0277
     12 H           1.0688   17.2690    1.2138 H       1  UNL1        0.0277
     13 H           0.5371   16.2544   -0.1351 H       1  UNL1        0.0277
     14 H           3.4919   14.5157    3.0355 H       1  UNL1        0.0277
     15 H           3.0297   16.2203    3.0815 H       1  UNL1        0.0277
     16 H           3.9855   15.6069    1.7073 H       1  UNL1        0.0277
     17 H           0.5760   13.4106   -0.8299 H       1  UNL1        0.0316
     18 H           1.8207   12.1517   -0.9840 H       1  UNL1        0.0316
     19 H          -1.2781   11.3677   -0.3151 H       1  UNL1        0.0277
     20 H          -0.8384   10.0165    0.7506 H       1  UNL1        0.0277
     21 H           0.1474   10.3655   -0.6889 H       1  UNL1        0.0277
     22 H           1.5958    9.8859    1.8891 H       1  UNL1        0.0277
     23 H           2.5959   11.2878    2.2959 H       1  UNL1        0.0277
     24 H           2.5929   10.6397    0.6310 H       1  UNL1        0.0277
@<TRIPOS>BOND
     1    18     6    1
     2    17     6    1
     3    21     7    1
     4    10     3    1
     5    19     7    1
     6     6     3    1
     7     6     2    1
     8    13     4    1
     9    11     4    1
    10     7    20    1
    11     7     2    1
    12     3     9    1
    13     3     1    1
    14     4    12    1
    15     4     1    1
    16    24     8    1
    17     2     8    1
    18     8    22    1
    19     8    23    1
    20     1     5    1
    21    16     5    1
    22     5    14    1
    23     5    15    1
