@<TRIPOS>MOLECULE
1,2
 24 23 0 0 0
SMALL
GASTEIGER

@<TRIPOS>ATOM
      1 P          -1.7264   15.7445    3.1955 P.3     1  UNL1       -0.1119
      2 P          -2.3323   12.6078    3.4310 P.3     1  UNL1       -0.1119
      3 C          -3.4672   15.1026    3.0128 C.3     1  UNL1       -0.0288
      4 C          -1.8888   16.4163    4.9011 C.3     1  UNL1       -0.0445
      5 C          -1.9458   17.2868    2.2058 C.3     1  UNL1       -0.0445
      6 C          -3.6413   13.8624    3.8717 C.3     1  UNL1       -0.0288
      7 C          -2.4541   11.5531    4.9273 C.3     1  UNL1       -0.0445
      8 C          -3.2965   11.5971    2.2320 C.3     1  UNL1       -0.0445
      9 H          -3.6306   14.8632    1.9584 H       1  UNL1        0.0316
     10 H          -4.1719   15.8906    3.3035 H       1  UNL1        0.0316
     11 H          -1.1912   17.2361    5.0329 H       1  UNL1        0.0277
     12 H          -1.6294   15.6280    5.6060 H       1  UNL1        0.0277
     13 H          -2.9035   16.7706    5.0877 H       1  UNL1        0.0277
     14 H          -1.0877   17.9404    2.3530 H       1  UNL1        0.0277
     15 H          -2.8555   17.8083    2.5054 H       1  UNL1        0.0277
     16 H          -2.0088   17.0126    1.1539 H       1  UNL1        0.0277
     17 H          -3.4896   14.1198    4.9259 H       1  UNL1        0.0316
     18 H          -4.6411   13.4296    3.7546 H       1  UNL1        0.0316
     19 H          -3.4898   11.4874    5.2633 H       1  UNL1        0.0277
     20 H          -1.8316   11.9918    5.7058 H       1  UNL1        0.0277
     21 H          -2.0811   10.5577    4.6972 H       1  UNL1        0.0277
     22 H          -3.4187   12.1696    1.3136 H       1  UNL1        0.0277
     23 H          -4.2729   11.3323    2.6395 H       1  UNL1        0.0277
     24 H          -2.7341   10.6923    2.0075 H       1  UNL1        0.0277
@<TRIPOS>BOND
     1    16     5    1
     2    22     8    1
     3     9     3    1
     4    24     8    1
     5     5    14    1
     6     5    15    1
     7     5     1    1
     8     8    23    1
     9     8     2    1
    10     3     1    1
    11     3    10    1
    12     3     6    1
    13     1     4    1
    14     2     6    1
    15     2     7    1
    16    18     6    1
    17     6    17    1
    18    21     7    1
    19     4    11    1
    20     4    13    1
    21     4    12    1
    22     7    19    1
    23     7    20    1
