@<TRIPOS>MOLECULE
1,2
 24 23 0 0 0
SMALL
GASTEIGER

@<TRIPOS>ATOM
      1 P           5.3567    2.6423    3.8572 P.3     1  UNL1       -0.1119
      2 P           2.9802    4.5992    4.2569 P.3     1  UNL1       -0.1119
      3 C           5.2870    3.5903    5.4364 C.3     1  UNL1       -0.0288
      4 C           6.8088    3.3878    3.0227 C.3     1  UNL1       -0.0445
      5 C           6.0463    1.0298    4.3647 C.3     1  UNL1       -0.0445
      6 C           4.5806    4.9046    5.1444 C.3     1  UNL1       -0.0288
      7 C           1.8441    4.3216    5.6639 C.3     1  UNL1       -0.0445
      8 C           2.6275    6.3449    3.7851 C.3     1  UNL1       -0.0445
      9 H           4.7175    2.9896    6.1471 H       1  UNL1        0.0316
     10 H           6.2955    3.7496    5.8304 H       1  UNL1        0.0316
     11 H           7.6852    3.3713    3.6695 H       1  UNL1        0.0277
     12 H           6.9972    2.8115    2.1182 H       1  UNL1        0.0277
     13 H           6.5711    4.4067    2.7258 H       1  UNL1        0.0277
     14 H           5.2931    0.4854    4.9262 H       1  UNL1        0.0277
     15 H           6.2988    0.4707    3.4649 H       1  UNL1        0.0277
     16 H           6.9363    1.1790    4.9760 H       1  UNL1        0.0277
     17 H           5.1954    5.5197    4.4799 H       1  UNL1        0.0316
     18 H           4.3792    5.4723    6.0596 H       1  UNL1        0.0316
     19 H           1.6509    5.2557    6.1906 H       1  UNL1        0.0277
     20 H           0.9141    3.8865    5.3067 H       1  UNL1        0.0277
     21 H           2.3005    3.5990    6.3367 H       1  UNL1        0.0277
     22 H           2.8943    7.0134    4.6035 H       1  UNL1        0.0277
     23 H           3.2237    6.5823    2.9046 H       1  UNL1        0.0277
     24 H           1.5733    6.4686    3.5482 H       1  UNL1        0.0277
@<TRIPOS>BOND
     1    12     4    1
     2    13     4    1
     3    23     8    1
     4     4    11    1
     5     4     1    1
     6    15     5    1
     7    24     8    1
     8     8     2    1
     9     8    22    1
    10     1     5    1
    11     1     3    1
    12     2     6    1
    13     2     7    1
    14     5    14    1
    15     5    16    1
    16    17     6    1
    17     6     3    1
    18     6    18    1
    19    20     7    1
    20     3    10    1
    21     3     9    1
    22     7    19    1
    23     7    21    1
