@<TRIPOS>MOLECULE
1,2
 24 23 0 0 0
SMALL
GASTEIGER

@<TRIPOS>ATOM
      1 P           0.8854    3.8562    1.7789 P.3     1  UNL1       -0.1119
      2 P           2.4669    1.6387    0.2746 P.3     1  UNL1       -0.1119
      3 C          -0.0182    2.7103    0.6481 C.3     1  UNL1       -0.0288
      4 C           1.0894    5.2991    0.6453 C.3     1  UNL1       -0.0445
      5 C          -0.5517    4.4173    2.7780 C.3     1  UNL1       -0.0445
      6 C           0.8927    2.2433   -0.4748 C.3     1  UNL1       -0.0288
      7 C           2.2374   -0.1694    0.3385 C.3     1  UNL1       -0.0445
      8 C           3.6343    1.8108   -1.1295 C.3     1  UNL1       -0.0445
      9 H          -0.3454    1.8615    1.2512 H       1  UNL1        0.0316
     10 H          -0.9082    3.2208    0.2646 H       1  UNL1        0.0316
     11 H           1.2357    6.2069    1.2247 H       1  UNL1        0.0277
     12 H           1.9752    5.1499    0.0318 H       1  UNL1        0.0277
     13 H           0.2064    5.4097    0.0168 H       1  UNL1        0.0277
     14 H          -0.2532    5.1291    3.5445 H       1  UNL1        0.0277
     15 H          -1.2865    4.8791    2.1187 H       1  UNL1        0.0277
     16 H          -0.9948    3.5491    3.2579 H       1  UNL1        0.0277
     17 H           1.1389    3.0745   -1.1426 H       1  UNL1        0.0316
     18 H           0.4302    1.4435   -1.0601 H       1  UNL1        0.0316
     19 H           1.4127   -0.3890    1.0125 H       1  UNL1        0.0277
     20 H           2.0295   -0.5600   -0.6577 H       1  UNL1        0.0277
     21 H           3.1478   -0.6140    0.7382 H       1  UNL1        0.0277
     22 H           4.5514    1.2802   -0.8790 H       1  UNL1        0.0277
     23 H           3.2007    1.4035   -2.0423 H       1  UNL1        0.0277
     24 H           3.8696    2.8652   -1.2619 H       1  UNL1        0.0277
@<TRIPOS>BOND
     1    23     8    1
     2    24     8    1
     3    17     6    1
     4     8    22    1
     5     8     2    1
     6    18     6    1
     7    20     7    1
     8     6     2    1
     9     6     3    1
    10    13     4    1
    11    12     4    1
    12    10     3    1
    13     2     7    1
    14     7    21    1
    15     7    19    1
    16     4    11    1
    17     4     1    1
    18     3     9    1
    19     3     1    1
    20     1     5    1
    21    15     5    1
    22     5    16    1
    23     5    14    1
