@<TRIPOS>MOLECULE
1,30
 52 55 0 0 0
SMALL
GASTEIGER

@<TRIPOS>ATOM
      1 P          13.2293    5.4807    4.2894 P.3     1  UNL1       -0.0435
      2 C          13.0715    6.9671    3.2282 C.ar    1  UNL1       -0.0189
      3 C          14.1865    7.7765    3.0166 C.ar    1  UNL1       -0.0538
      4 H          15.1543    7.4487    3.3687 H       1  UNL1        0.0624
      5 C          11.8334    7.4099    2.7716 C.ar    1  UNL1       -0.0538
      6 H          10.9492    6.8142    2.9449 H       1  UNL1        0.0624
      7 C          11.7170    8.6121    2.0981 C.ar    1  UNL1       -0.0612
      8 H          10.7486    8.9356    1.7438 H       1  UNL1        0.0618
      9 C          12.8341    9.4019    1.8827 C.ar    1  UNL1       -0.0617
     10 H          12.7421   10.3424    1.3598 H       1  UNL1        0.0618
     11 C          14.0696    8.9794    2.3454 C.ar    1  UNL1       -0.0612
     12 H          14.9455    9.5913    2.1834 H       1  UNL1        0.0618
     13 C          14.9089    4.9677    3.7793 C.ar    1  UNL1       -0.0189
     14 C          15.8824    4.7820    4.7498 C.ar    1  UNL1       -0.0538
     15 H          15.6072    4.9147    5.7830 H       1  UNL1        0.0624
     16 C          17.1624    4.3996    4.3898 C.ar    1  UNL1       -0.0612
     17 H          17.9165    4.2520    5.1497 H       1  UNL1        0.0618
     18 C          17.4773    4.2008    3.0563 C.ar    1  UNL1       -0.0617
     19 H          18.4743    3.8954    2.7732 H       1  UNL1        0.0618
     20 C          16.5113    4.3952    2.0811 C.ar    1  UNL1       -0.0612
     21 H          16.7583    4.2466    1.0394 H       1  UNL1        0.0618
     22 C          15.2332    4.7819    2.4383 C.ar    1  UNL1       -0.0538
     23 H          14.4855    4.9536    1.6748 H       1  UNL1        0.0624
     24 C          12.1830    4.2263    3.3715 C.3     1  UNL1       -0.0199
     25 H          11.4796    4.7696    2.7346 H       1  UNL1        0.0323
     26 H          12.8255    3.6167    2.7303 H       1  UNL1        0.0323
     27 C          11.4163    3.3464    4.3561 C.3     1  UNL1       -0.0199
     28 H          12.0571    2.5394    4.7150 H       1  UNL1        0.0323
     29 H          10.5219    2.9179    3.8934 H       1  UNL1        0.0323
     30 P          10.9740    4.3854    5.8291 P.3     1  UNL1       -0.0435
     31 C           9.4819    5.1980    5.1398 C.ar    1  UNL1       -0.0189
     32 C           9.5230    6.5738    4.9669 C.ar    1  UNL1       -0.0538
     33 H          10.4187    7.0945    5.2709 H       1  UNL1        0.0624
     34 C           8.4519    7.2468    4.4048 C.ar    1  UNL1       -0.0612
     35 H           8.4928    8.3192    4.2762 H       1  UNL1        0.0618
     36 C           7.3310    6.5398    4.0046 C.ar    1  UNL1       -0.0617
     37 H           6.4904    7.0583    3.5668 H       1  UNL1        0.0618
     38 C           7.2866    5.1627    4.1639 C.ar    1  UNL1       -0.0612
     39 H           6.4124    4.6122    3.8468 H       1  UNL1        0.0618
     40 C           8.3556    4.4916    4.7278 C.ar    1  UNL1       -0.0538
     41 H           8.3161    3.4183    4.8593 H       1  UNL1        0.0624
     42 C          10.2230    3.1976    6.9862 C.ar    1  UNL1       -0.0189
     43 C          10.9338    2.0591    7.3568 C.ar    1  UNL1       -0.0538
     44 H          11.8962    1.8680    6.9084 H       1  UNL1        0.0624
     45 C          10.4292    1.2028    8.3177 C.ar    1  UNL1       -0.0612
     46 H          10.9872    0.3200    8.5933 H       1  UNL1        0.0618
     47 C           9.2190    1.4775    8.9337 C.ar    1  UNL1       -0.0617
     48 H           8.8266    0.8084    9.6855 H       1  UNL1        0.0618
     49 C           8.5179    2.6212    8.5893 C.ar    1  UNL1       -0.0612
     50 H           7.5794    2.8480    9.0751 H       1  UNL1        0.0618
     51 C           9.0179    3.4793    7.6267 C.ar    1  UNL1       -0.0538
     52 H           8.4637    4.3705    7.3651 H       1  UNL1        0.0624
@<TRIPOS>BOND
     1    21    20    1
     2    10     9    1
     3    23    22    1
     4     8     7    1
     5     9     7   ar
     6     9    11   ar
     7    20    22   ar
     8    20    18   ar
     9     7     5   ar
    10    12    11    1
    11    11     3   ar
    12    22    13   ar
    13    26    24    1
    14    25    24    1
    15     5     6    1
    16     5     2   ar
    17    19    18    1
    18     3     2   ar
    19     3     4    1
    20    18    16   ar
    21     2     1    1
    22    24     1    1
    23    24    27    1
    24    37    36    1
    25    13     1    1
    26    13    14   ar
    27    39    38    1
    28    29    27    1
    29    36    38   ar
    30    36    34   ar
    31    38    40   ar
    32    35    34    1
    33    27    28    1
    34    27    30    1
    35    16    14   ar
    36    16    17    1
    37    34    32   ar
    38    40    41    1
    39    40    31   ar
    40    14    15    1
    41    32    31   ar
    42    32    33    1
    43    31    30    1
    44    30    42    1
    45    44    43    1
    46    42    43   ar
    47    42    51   ar
    48    43    45   ar
    49    52    51    1
    50    51    49   ar
    51    45    46    1
    52    45    47   ar
    53    49    47   ar
    54    49    50    1
    55    47    48    1
