@<TRIPOS>MOLECULE
1,2
 82 83 0 0 0
SMALL
GASTEIGER

@<TRIPOS>ATOM
      1 P           4.8921    1.3583    3.8500 P.3     1  UNL1        0.0000
      2 P           5.2937    3.9345    1.8238 P.3     1  UNL1        0.0000
      3 N           5.2558   -0.3035    3.6147 N.3     1  UNL1        0.0000
      4 N           3.8468    0.7615    5.0788 N.3     1  UNL1        0.0000
      5 N           5.9808    4.3603    0.3056 N.3     1  UNL1        0.0000
      6 N           4.2657    5.2769    1.5227 N.3     1  UNL1        0.0000
      7 SI          4.4128   -0.8994    5.0244 Si      1  UNL1        0.0000
      8 SI          5.1200    5.8793    0.1225 Si      1  UNL1        0.0000
      9 C           3.0499   -2.1703    4.6235 C.3     1  UNL1        0.0000
     10 H           2.4613   -2.3948    5.5054 H       1  UNL1        0.0000
     11 H           3.4823   -3.1028    4.2797 H       1  UNL1        0.0000
     12 H           2.3739   -1.8129    3.8532 H       1  UNL1        0.0000
     13 C           5.4995   -1.5116    6.4711 C.3     1  UNL1        0.0000
     14 H           6.2992   -0.8127    6.7018 H       1  UNL1        0.0000
     15 H           5.9508   -2.4700    6.2331 H       1  UNL1        0.0000
     16 H           4.9106   -1.6568    7.3715 H       1  UNL1        0.0000
     17 C           4.0466    5.9757   -1.4498 C.3     1  UNL1        0.0000
     18 H           3.5428    5.0369   -1.6568 H       1  UNL1        0.0000
     19 H           4.6512    6.2270   -2.3135 H       1  UNL1        0.0000
     20 H           3.2892    6.7449   -1.3529 H       1  UNL1        0.0000
     21 C           6.1124    7.4939    0.3599 C.3     1  UNL1        0.0000
     22 H           5.4455    8.3484    0.4237 H       1  UNL1        0.0000
     23 H           6.7756    7.6752   -0.4802 H       1  UNL1        0.0000
     24 H           6.7147    7.4707    1.2643 H       1  UNL1        0.0000
     25 C           6.3433   -0.9441    2.9059 C.3     1  UNL1        0.0000
     26 C           6.4806   -0.2794    1.5406 C.3     1  UNL1        0.0000
     27 H           5.6076   -0.4986    0.9290 H       1  UNL1        0.0000
     28 H           7.3714   -0.6200    1.0189 H       1  UNL1        0.0000
     29 H           6.5402    0.7947    1.6949 H       1  UNL1        0.0000
     30 C           5.9941   -2.4214    2.7053 C.3     1  UNL1        0.0000
     31 H           5.9354   -2.9342    3.6608 H       1  UNL1        0.0000
     32 H           6.7595   -2.8994    2.0990 H       1  UNL1        0.0000
     33 H           5.0357   -2.5147    2.2021 H       1  UNL1        0.0000
     34 C           7.6508   -0.8421    3.7006 C.3     1  UNL1        0.0000
     35 H           7.7865    0.1747    4.0639 H       1  UNL1        0.0000
     36 H           8.5038   -1.1127    3.0832 H       1  UNL1        0.0000
     37 H           7.6173   -1.5049    4.5608 H       1  UNL1        0.0000
     38 C           3.6675    1.6766    2.4793 C.3     1  UNL1        0.0000
     39 H           3.3075    0.6995    2.1383 H       1  UNL1        0.0000
     40 H           2.8293    2.1929    2.9537 H       1  UNL1        0.0000
     41 C           4.2067    2.5039    1.3220 C.3     1  UNL1        0.0000
     42 H           3.3945    2.9169    0.7134 H       1  UNL1        0.0000
     43 H           4.8273    1.8828    0.6713 H       1  UNL1        0.0000
     44 C           3.1903    1.3820    6.2174 C.3     1  UNL1        0.0000
     45 C           2.2317    0.3534    6.8262 C.3     1  UNL1        0.0000
     46 H           1.5336    0.0029    6.0716 H       1  UNL1        0.0000
     47 H           1.6716    0.8092    7.6390 H       1  UNL1        0.0000
     48 H           2.7769   -0.4985    7.2196 H       1  UNL1        0.0000
     49 C           2.3623    2.5885    5.7811 C.3     1  UNL1        0.0000
     50 H           3.0130    3.3689    5.4084 H       1  UNL1        0.0000
     51 H           1.8037    2.9853    6.6256 H       1  UNL1        0.0000
     52 H           1.6586    2.3032    5.0023 H       1  UNL1        0.0000
     53 C           4.2091    1.8052    7.2804 C.3     1  UNL1        0.0000
     54 H           4.7136    0.9324    7.6851 H       1  UNL1        0.0000
     55 H           3.7166    2.3353    8.0921 H       1  UNL1        0.0000
     56 H           4.9591    2.4595    6.8411 H       1  UNL1        0.0000
     57 C           7.2345    4.0278   -0.3502 C.3     1  UNL1        0.0000
     58 C           7.1747    4.5689   -1.7823 C.3     1  UNL1        0.0000
     59 H           6.3057    4.1679   -2.2959 H       1  UNL1        0.0000
     60 H           8.0703    4.2746   -2.3240 H       1  UNL1        0.0000
     61 H           7.1119    5.6523   -1.7846 H       1  UNL1        0.0000
     62 C           7.4246    2.5149   -0.4318 C.3     1  UNL1        0.0000
     63 H           7.5398    2.1019    0.5620 H       1  UNL1        0.0000
     64 H           8.3188    2.2795   -1.0042 H       1  UNL1        0.0000
     65 H           6.5690    2.0515   -0.9177 H       1  UNL1        0.0000
     66 C           8.4242    4.6652    0.3747 C.3     1  UNL1        0.0000
     67 H           8.3544    5.7483    0.3292 H       1  UNL1        0.0000
     68 H           9.3610    4.3531   -0.0808 H       1  UNL1        0.0000
     69 H           8.4291    4.3674    1.4209 H       1  UNL1        0.0000
     70 C           3.3955    6.0211    2.4082 C.3     1  UNL1        0.0000
     71 C           2.5729    5.0246    3.2174 C.3     1  UNL1        0.0000
     72 H           1.8842    4.4916    2.5648 H       1  UNL1        0.0000
     73 H           2.0047    5.5197    4.0009 H       1  UNL1        0.0000
     74 H           3.2580    4.3091    3.6642 H       1  UNL1        0.0000
     75 C           2.4476    6.8740    1.5605 C.3     1  UNL1        0.0000
     76 H           3.0013    7.6261    1.0061 H       1  UNL1        0.0000
     77 H           1.7294    7.3741    2.2056 H       1  UNL1        0.0000
     78 H           1.9108    6.2472    0.8537 H       1  UNL1        0.0000
     79 C           4.2071    6.9398    3.3295 C.3     1  UNL1        0.0000
     80 H           5.0450    6.3920    3.7561 H       1  UNL1        0.0000
     81 H           3.5896    7.3248    4.1372 H       1  UNL1        0.0000
     82 H           4.6057    7.7774    2.7641 H       1  UNL1        0.0000
@<TRIPOS>BOND
     1    60    58    1
     2    19    17    1
     3    59    58    1
     4    61    58    1
     5    58    57    1
     6    18    17    1
     7    17    20    1
     8    17     8    1
     9    64    62    1
    10    65    62    1
    11    23    21    1
    12    62    57    1
    13    62    63    1
    14    57     5    1
    15    57    66    1
    16    68    66    1
    17     8     5    1
    18     8    21    1
    19     8     6    1
    20     5     2    1
    21    67    66    1
    22    21    22    1
    23    21    24    1
    24    66    69    1
    25    43    41    1
    26    42    41    1
    27    78    75    1
    28    27    26    1
    29    76    75    1
    30    28    26    1
    31    41     2    1
    32    41    38    1
    33     6     2    1
    34     6    70    1
    35    26    29    1
    36    26    25    1
    37    75    77    1
    38    75    70    1
    39    32    30    1
    40    39    38    1
    41    33    30    1
    42    70    71    1
    43    70    79    1
    44    38    40    1
    45    38     1    1
    46    72    71    1
    47    30    25    1
    48    30    31    1
    49    82    79    1
    50    25     3    1
    51    25    34    1
    52    36    34    1
    53    71    74    1
    54    71    73    1
    55    79    80    1
    56    79    81    1
    57     3     1    1
    58     3     7    1
    59    34    35    1
    60    34    37    1
    61     1     4    1
    62    12     9    1
    63    11     9    1
    64     9     7    1
    65     9    10    1
    66    52    49    1
    67     7     4    1
    68     7    13    1
    69     4    44    1
    70    50    49    1
    71    49    44    1
    72    49    51    1
    73    46    45    1
    74    44    45    1
    75    44    53    1
    76    15    13    1
    77    13    14    1
    78    13    16    1
    79    45    48    1
    80    45    47    1
    81    56    53    1
    82    53    54    1
    83    53    55    1
