@<TRIPOS>MOLECULE
1,2
 85 87 0 0 0
SMALL
GASTEIGER

@<TRIPOS>ATOM
      1 P           4.1217    2.4545   10.4288 P.3     1  UNL1        0.0000
      2 P           5.5918    4.5999   11.1013 P.3     1  UNL1        0.0000
      3 SI          3.2426    5.2692    8.8759 Si      1  UNL1        0.0000
      4 C           4.2559    4.0894    9.9599 C.2     1  UNL1        0.0000
      5 C           4.3660    6.3615    7.7832 C.3     1  UNL1        0.0000
      6 C           2.2141    6.4500    9.9751 C.3     1  UNL1        0.0000
      7 C           2.0531    4.3368    7.7166 C.3     1  UNL1        0.0000
      8 C           5.0402    6.2022   11.7692 C.ar    1  UNL1        0.0000
      9 C           5.4723    7.4315   11.2842 C.ar    1  UNL1        0.0000
     10 C           4.9842    8.6017   11.8376 C.ar    1  UNL1        0.0000
     11 C           4.0656    8.5558   12.8736 C.ar    1  UNL1        0.0000
     12 C           3.6377    7.3331   13.3659 C.ar    1  UNL1        0.0000
     13 C           4.1269    6.1629   12.8184 C.ar    1  UNL1        0.0000
     14 C           7.0459    5.0767   10.1211 C.ar    1  UNL1        0.0000
     15 C           7.1851    4.8422    8.7606 C.ar    1  UNL1        0.0000
     16 C           8.3896    5.1116    8.1336 C.ar    1  UNL1        0.0000
     17 C           9.4592    5.6052    8.8601 C.ar    1  UNL1        0.0000
     18 C           9.3308    5.8237   10.2241 C.ar    1  UNL1        0.0000
     19 C           8.1332    5.5518   10.8539 C.ar    1  UNL1        0.0000
     20 C           2.8056    1.6191    9.4756 C.ar    1  UNL1        0.0000
     21 C           1.4772    1.6126    9.9511 C.ar    1  UNL1        0.0000
     22 C           0.4673    1.3194    9.0489 C.ar    1  UNL1        0.0000
     23 C           0.7189    0.9802    7.7263 C.ar    1  UNL1        0.0000
     24 C           2.0392    0.7741    7.3644 C.ar    1  UNL1        0.0000
     25 C           3.0975    1.0504    8.2207 C.ar    1  UNL1        0.0000
     26 C           1.1304    1.7969   11.4287 C.3     1  UNL1        0.0000
     27 C           1.3726    3.2330   11.9007 C.3     1  UNL1        0.0000
     28 C          -0.3403    1.4715   11.7318 C.3     1  UNL1        0.0000
     29 C           1.9730    0.8072   12.2458 C.3     1  UNL1        0.0000
     30 C          -0.4437    0.7880    6.7669 C.3     1  UNL1        0.0000
     31 C          -1.2654    2.0844    6.7234 C.3     1  UNL1        0.0000
     32 C          -1.3217   -0.3702    7.2609 C.3     1  UNL1        0.0000
     33 C           0.0143    0.4702    5.3409 C.3     1  UNL1        0.0000
     34 C           4.5115    0.6258    7.8210 C.3     1  UNL1        0.0000
     35 C           4.5306   -0.1966    6.5236 C.3     1  UNL1        0.0000
     36 C           5.0713   -0.2810    8.9267 C.3     1  UNL1        0.0000
     37 C           5.4393    1.8263    7.6076 C.3     1  UNL1        0.0000
     38 H           4.7844    5.8172    6.9421 H       1  UNL1        0.0000
     39 H           5.1905    6.7882    8.3448 H       1  UNL1        0.0000
     40 H           3.7854    7.1850    7.3779 H       1  UNL1        0.0000
     41 H           2.7889    7.3296   10.2471 H       1  UNL1        0.0000
     42 H           1.3313    6.7875    9.4401 H       1  UNL1        0.0000
     43 H           1.8837    5.9848   10.8975 H       1  UNL1        0.0000
     44 H           1.5698    5.0462    7.0517 H       1  UNL1        0.0000
     45 H           1.2767    3.8152    8.2644 H       1  UNL1        0.0000
     46 H           2.5623    3.6034    7.1009 H       1  UNL1        0.0000
     47 H           6.1950    7.4739   10.4815 H       1  UNL1        0.0000
     48 H           5.3231    9.5550   11.4584 H       1  UNL1        0.0000
     49 H           3.6884    9.4728   13.3013 H       1  UNL1        0.0000
     50 H           2.9284    7.2945   14.1795 H       1  UNL1        0.0000
     51 H           3.8098    5.2036   13.2063 H       1  UNL1        0.0000
     52 H           6.3526    4.4495    8.1971 H       1  UNL1        0.0000
     53 H           8.4941    4.9287    7.0739 H       1  UNL1        0.0000
     54 H          10.3983    5.8103    8.3678 H       1  UNL1        0.0000
     55 H          10.1696    6.1951   10.7944 H       1  UNL1        0.0000
     56 H           8.0229    5.6985   11.9222 H       1  UNL1        0.0000
     57 H          -0.5565    1.3658    9.3737 H       1  UNL1        0.0000
     58 H           2.2496    0.3986    6.3814 H       1  UNL1        0.0000
     59 H           2.4283    3.4940   11.8586 H       1  UNL1        0.0000
     60 H           0.8176    3.9309   11.2767 H       1  UNL1        0.0000
     61 H           1.0396    3.3449   12.9309 H       1  UNL1        0.0000
     62 H          -1.0143    2.1943   11.2769 H       1  UNL1        0.0000
     63 H          -0.4934    1.5135   12.8081 H       1  UNL1        0.0000
     64 H          -0.6026    0.4702   11.3986 H       1  UNL1        0.0000
     65 H           1.7537    0.9142   13.3060 H       1  UNL1        0.0000
     66 H           1.7426   -0.2138   11.9473 H       1  UNL1        0.0000
     67 H           3.0427    0.9665   12.1092 H       1  UNL1        0.0000
     68 H          -0.6424    2.9118    6.3906 H       1  UNL1        0.0000
     69 H          -1.6692    2.3334    7.7008 H       1  UNL1        0.0000
     70 H          -2.0972    1.9770    6.0306 H       1  UNL1        0.0000
     71 H          -1.7424   -0.1601    8.2403 H       1  UNL1        0.0000
     72 H          -2.1428   -0.5387    6.5675 H       1  UNL1        0.0000
     73 H          -0.7354   -1.2841    7.3303 H       1  UNL1        0.0000
     74 H          -0.8544    0.3982    4.6897 H       1  UNL1        0.0000
     75 H           0.5410   -0.4803    5.2981 H       1  UNL1        0.0000
     76 H           0.6597    1.2559    4.9547 H       1  UNL1        0.0000
     77 H           4.2522    0.4068    5.6623 H       1  UNL1        0.0000
     78 H           3.8732   -1.0601    6.5900 H       1  UNL1        0.0000
     79 H           5.5413   -0.5630    6.3556 H       1  UNL1        0.0000
     80 H           4.4470   -1.1654    9.0397 H       1  UNL1        0.0000
     81 H           6.0803   -0.5997    8.6737 H       1  UNL1        0.0000
     82 H           5.1160    0.2287    9.8900 H       1  UNL1        0.0000
     83 H           6.3506    1.5072    7.1054 H       1  UNL1        0.0000
     84 H           5.7286    2.2689    8.5584 H       1  UNL1        0.0000
     85 H           4.9524    2.5848    6.9963 H       1  UNL1        0.0000
@<TRIPOS>BOND
     1    74    33    1
     2    76    33    1
     3    75    33    1
     4    33    30    1
     5    77    35    1
     6    70    31    1
     7    79    35    1
     8    58    24    1
     9    68    31    1
    10    35    78    1
    11    35    34    1
    12    72    32    1
    13    31    30    1
    14    31    69    1
    15    30    32    1
    16    30    23    1
    17    38     5    1
    18    85    37    1
    19    44     7    1
    20    53    16    1
    21    46     7    1
    22    83    37    1
    23    32    73    1
    24    32    71    1
    25    24    23   ar
    26    24    25   ar
    27    40     5    1
    28    37    34    1
    29    37    84    1
    30     7    45    1
    31     7     3    1
    32    23    22   ar
    33     5    39    1
    34     5     3    1
    35    34    25    1
    36    34    36    1
    37    16    15   ar
    38    16    17   ar
    39    52    15    1
    40    25    20   ar
    41    54    17    1
    42    81    36    1
    43    15    14   ar
    44    17    18   ar
    45     3     4    1
    46     3     6    1
    47    36    80    1
    48    36    82    1
    49    22    57    1
    50    22    21   ar
    51    42     6    1
    52    20    21   ar
    53    20     1    1
    54    21    26    1
    55     4     1    2
    56     4     2    1
    57     6    41    1
    58     6    43    1
    59    14    19   ar
    60    14     2    1
    61    18    55    1
    62    18    19   ar
    63    47     9    1
    64    19    56    1
    65     2     8    1
    66    60    27    1
    67    62    28    1
    68     9     8   ar
    69     9    10   ar
    70    64    28    1
    71    26    28    1
    72    26    27    1
    73    26    29    1
    74    48    10    1
    75    28    63    1
    76     8    13   ar
    77    10    11   ar
    78    59    27    1
    79    27    61    1
    80    66    29    1
    81    67    29    1
    82    29    65    1
    83    13    51    1
    84    13    12   ar
    85    11    49    1
    86    11    12   ar
    87    12    50    1
