@<TRIPOS>MOLECULE
1,2
 24 23 0 0 0
SMALL
GASTEIGER

@<TRIPOS>ATOM
      1 P          16.7450   22.0240    7.0084 P.3     1  UNL1       -0.1119
      2 P          14.4501   21.4029    5.2034 P.3     1  UNL1       -0.1119
      3 C          15.5026   20.8018    7.6211 C.3     1  UNL1       -0.0288
      4 H          15.9601   20.1153    8.3415 H       1  UNL1        0.0316
      5 H          14.7162   21.3763    8.1232 H       1  UNL1        0.0316
      6 C          14.9380   20.0891    6.4062 C.3     1  UNL1       -0.0288
      7 H          14.0882   19.4432    6.6502 H       1  UNL1        0.0316
      8 H          15.7181   19.4909    5.9204 H       1  UNL1        0.0316
      9 C          17.0336   22.9514    8.5609 C.3     1  UNL1       -0.0445
     10 H          17.0662   22.2583    9.4031 H       1  UNL1        0.0277
     11 H          16.2209   23.6668    8.6901 H       1  UNL1        0.0277
     12 H          17.9829   23.4835    8.4899 H       1  UNL1        0.0277
     13 C          18.2489   20.9707    7.0015 C.3     1  UNL1       -0.0445
     14 H          19.1025   21.5821    6.7096 H       1  UNL1        0.0277
     15 H          18.1178   20.1867    6.2560 H       1  UNL1        0.0277
     16 H          18.4209   20.5350    7.9865 H       1  UNL1        0.0277
     17 C          14.0322   20.3525    3.7605 C.3     1  UNL1       -0.0445
     18 H          13.3959   19.5227    4.0713 H       1  UNL1        0.0277
     19 H          14.9587   19.9743    3.3301 H       1  UNL1        0.0277
     20 H          13.5111   20.9554    3.0160 H       1  UNL1        0.0277
     21 C          12.7572   21.7695    5.8053 C.3     1  UNL1       -0.0445
     22 H          12.2468   22.3932    5.0733 H       1  UNL1        0.0277
     23 H          12.8278   22.3285    6.7373 H       1  UNL1        0.0277
     24 H          12.2015   20.8424    5.9535 H       1  UNL1        0.0277
@<TRIPOS>BOND
     1    20    17    1
     2    19    17    1
     3    17    18    1
     4    17     2    1
     5    22    21    1
     6     2    21    1
     7     2     6    1
     8    21    24    1
     9    21    23    1
    10     8     6    1
    11    15    13    1
    12     6     7    1
    13     6     3    1
    14    14    13    1
    15    13     1    1
    16    13    16    1
    17     1     3    1
    18     1     9    1
    19     3     5    1
    20     3     4    1
    21    12     9    1
    22     9    11    1
    23     9    10    1
