@<TRIPOS>MOLECULE
1,2
 24 23 0 0 0
SMALL
GASTEIGER

@<TRIPOS>ATOM
      1 P          15.1138   24.0139    3.4730 P.3     1  UNL1       -0.1119
      2 P          17.5094   24.5634    5.1708 P.3     1  UNL1       -0.1119
      3 C          15.8398   25.7071    3.3733 C.3     1  UNL1       -0.0288
      4 H          15.6167   26.1690    2.4055 H       1  UNL1        0.0316
      5 H          15.3731   26.2955    4.1717 H       1  UNL1        0.0316
      6 C          17.3294   25.5623    3.6270 C.3     1  UNL1       -0.0288
      7 H          17.8385   26.5268    3.7244 H       1  UNL1        0.0316
      8 H          17.7977   24.9881    2.8188 H       1  UNL1        0.0316
      9 C          15.3725   23.4484    1.7454 C.3     1  UNL1       -0.0445
     10 H          14.9119   22.4674    1.6289 H       1  UNL1        0.0277
     11 H          16.4428   23.3463    1.5685 H       1  UNL1        0.0277
     12 H          14.9342   24.1529    1.0373 H       1  UNL1        0.0277
     13 C          13.3354   24.4379    3.3828 C.3     1  UNL1       -0.0445
     14 H          12.7702   23.5537    3.0853 H       1  UNL1        0.0277
     15 H          13.1811   25.2321    2.6505 H       1  UNL1        0.0277
     16 H          13.0100   24.7656    4.3702 H       1  UNL1        0.0277
     17 C          17.4725   25.9138    6.4102 C.3     1  UNL1       -0.0445
     18 H          18.2106   26.6746    6.1521 H       1  UNL1        0.0277
     19 H          17.6931   25.5028    7.3938 H       1  UNL1        0.0277
     20 H          16.4711   26.3410    6.4385 H       1  UNL1        0.0277
     21 C          19.3160   24.2537    5.1286 C.3     1  UNL1       -0.0445
     22 H          19.5189   23.4893    4.3794 H       1  UNL1        0.0277
     23 H          19.6372   23.8924    6.1063 H       1  UNL1        0.0277
     24 H          19.8506   25.1725    4.8833 H       1  UNL1        0.0277
@<TRIPOS>BOND
     1    12     9    1
     2    11     9    1
     3    10     9    1
     4     9     1    1
     5     4     3    1
     6    15    13    1
     7     8     6    1
     8    14    13    1
     9     3     1    1
    10     3     6    1
    11     3     5    1
    12    13     1    1
    13    13    16    1
    14     6     7    1
    15     6     2    1
    16    22    21    1
    17    24    21    1
    18    21     2    1
    19    21    23    1
    20     2    17    1
    21    18    17    1
    22    17    20    1
    23    17    19    1
