@<TRIPOS>MOLECULE
2,3
 94 96 0 0 0
SMALL
GASTEIGER

@<TRIPOS>ATOM
      1 SI          4.7034    2.7638    1.5636 Si      1  UNL1        0.0000
      2 P           2.6196    2.5035    3.8703 P.3     1  UNL1        0.0000
      3 P           1.9801    3.4886    0.3148 P.3     1  UNL1        0.0000
      4 P           6.6803    4.4149    3.1638 P.3     1  UNL1        0.0000
      5 C           5.0481    1.5730    2.9895 C.ar    1  UNL1        0.0000
      6 C           6.1722    0.7601    3.0013 C.ar    1  UNL1        0.0000
      7 H           6.9183    0.8802    2.2291 H       1  UNL1        0.0000
      8 C           6.3460   -0.1907    3.9905 C.ar    1  UNL1        0.0000
      9 H           7.2257   -0.8182    3.9936 H       1  UNL1        0.0000
     10 C           5.3858   -0.3379    4.9790 C.ar    1  UNL1        0.0000
     11 H           5.5157   -1.0799    5.7536 H       1  UNL1        0.0000
     12 C           4.2599    0.4648    4.9757 C.ar    1  UNL1        0.0000
     13 H           3.5209    0.3371    5.7541 H       1  UNL1        0.0000
     14 C           4.0869    1.4230    3.9814 C.ar    1  UNL1        0.0000
     15 C           3.8952    1.6054    0.2733 C.ar    1  UNL1        0.0000
     16 C           4.5159    0.4194   -0.0913 C.ar    1  UNL1        0.0000
     17 H           5.4458    0.1436    0.3831 H       1  UNL1        0.0000
     18 C           3.9562   -0.4174   -1.0410 C.ar    1  UNL1        0.0000
     19 H           4.4482   -1.3415   -1.3071 H       1  UNL1        0.0000
     20 C           2.7637   -0.0658   -1.6493 C.ar    1  UNL1        0.0000
     21 H           2.3245   -0.7101   -2.3973 H       1  UNL1        0.0000
     22 C           2.1253    1.1101   -1.2954 C.ar    1  UNL1        0.0000
     23 H           1.1916    1.3620   -1.7757 H       1  UNL1        0.0000
     24 C           2.6859    1.9440   -0.3361 C.ar    1  UNL1        0.0000
     25 C           6.3961    3.1336    0.7720 C.ar    1  UNL1        0.0000
     26 C           6.7493    2.7558   -0.5146 C.ar    1  UNL1        0.0000
     27 H           6.0297    2.2450   -1.1386 H       1  UNL1        0.0000
     28 C           8.0134    3.0236   -1.0105 C.ar    1  UNL1        0.0000
     29 H           8.2759    2.7212   -2.0143 H       1  UNL1        0.0000
     30 C           8.9417    3.6792   -0.2185 C.ar    1  UNL1        0.0000
     31 H           9.9322    3.8826   -0.6007 H       1  UNL1        0.0000
     32 C           8.5952    4.0869    1.0573 C.ar    1  UNL1        0.0000
     33 H           9.3197    4.6152    1.6614 H       1  UNL1        0.0000
     34 C           7.3248    3.8217    1.5528 C.ar    1  UNL1        0.0000
     35 C           1.3377    1.1409    3.7757 C.3     1  UNL1        0.0000
     36 H           1.6054    0.4222    4.5609 H       1  UNL1        0.0000
     37 C           1.4903    0.4644    2.4223 C.3     1  UNL1        0.0000
     38 H           0.7704   -0.3442    2.3075 H       1  UNL1        0.0000
     39 H           2.4931    0.0568    2.2988 H       1  UNL1        0.0000
     40 H           1.3228    1.1963    1.6346 H       1  UNL1        0.0000
     41 C          -0.0892    1.6214    4.0037 C.3     1  UNL1        0.0000
     42 H          -0.2871    2.5198    3.4252 H       1  UNL1        0.0000
     43 H          -0.2650    1.8423    5.0535 H       1  UNL1        0.0000
     44 H          -0.7947    0.8497    3.6986 H       1  UNL1        0.0000
     45 C           2.4440    3.0078    5.6736 C.3     1  UNL1        0.0000
     46 H           2.0663    2.1013    6.1703 H       1  UNL1        0.0000
     47 C           1.4388    4.1343    5.8892 C.3     1  UNL1        0.0000
     48 H           1.2731    4.2748    6.9567 H       1  UNL1        0.0000
     49 H           0.4846    3.9278    5.4147 H       1  UNL1        0.0000
     50 H           1.8256    5.0631    5.4807 H       1  UNL1        0.0000
     51 C           3.7858    3.3943    6.2920 C.3     1  UNL1        0.0000
     52 H           4.2342    4.2155    5.7401 H       1  UNL1        0.0000
     53 H           4.4856    2.5624    6.3008 H       1  UNL1        0.0000
     54 H           3.6287    3.7205    7.3189 H       1  UNL1        0.0000
     55 C           0.2611    3.5496   -0.4237 C.3     1  UNL1        0.0000
     56 H           0.3907    3.2790   -1.4803 H       1  UNL1        0.0000
     57 C          -0.3887    4.9295   -0.3523 C.3     1  UNL1        0.0000
     58 H          -1.4177    4.8584   -0.7031 H       1  UNL1        0.0000
     59 H           0.1237    5.6539   -0.9794 H       1  UNL1        0.0000
     60 H          -0.4046    5.2948    0.6708 H       1  UNL1        0.0000
     61 C          -0.6425    2.5249    0.2554 C.3     1  UNL1        0.0000
     62 H          -0.7606    2.7794    1.3051 H       1  UNL1        0.0000
     63 H          -0.2414    1.5165    0.1770 H       1  UNL1        0.0000
     64 H          -1.6273    2.5347   -0.2099 H       1  UNL1        0.0000
     65 C           2.9611    4.6788   -0.7701 C.3     1  UNL1        0.0000
     66 H           3.9932    4.3194   -0.6380 H       1  UNL1        0.0000
     67 C           2.8863    6.1018   -0.2182 C.3     1  UNL1        0.0000
     68 H           3.6927    6.7117   -0.6232 H       1  UNL1        0.0000
     69 H           2.9802    6.0979    0.8749 H       1  UNL1        0.0000
     70 H           1.9417    6.5799   -0.4621 H       1  UNL1        0.0000
     71 C           2.6460    4.6168   -2.2602 C.3     1  UNL1        0.0000
     72 H           1.6648    5.0266   -2.4858 H       1  UNL1        0.0000
     73 H           2.6910    3.5892   -2.6187 H       1  UNL1        0.0000
     74 H           3.3849    5.1988   -2.8101 H       1  UNL1        0.0000
     75 C           8.1196    4.0598    4.3405 C.3     1  UNL1        0.0000
     76 H           8.8609    4.8626    4.2378 H       1  UNL1        0.0000
     77 C           8.7947    2.7180    4.0842 C.3     1  UNL1        0.0000
     78 H           9.6111    2.5783    4.7929 H       1  UNL1        0.0000
     79 H           9.2015    2.6511    3.0779 H       1  UNL1        0.0000
     80 H           8.0825    1.9077    4.2219 H       1  UNL1        0.0000
     81 C           7.5480    4.0697    5.7579 C.3     1  UNL1        0.0000
     82 H           6.8905    3.2124    5.8921 H       1  UNL1        0.0000
     83 H           6.9662    4.9687    5.9471 H       1  UNL1        0.0000
     84 H           8.3468    4.0101    6.4965 H       1  UNL1        0.0000
     85 C           7.0386    6.2396    2.8344 C.3     1  UNL1        0.0000
     86 H           8.0990    6.3123    2.5558 H       1  UNL1        0.0000
     87 C           6.1912    6.7292    1.6646 C.3     1  UNL1        0.0000
     88 H           5.1419    6.7348    1.9458 H       1  UNL1        0.0000
     89 H           6.3220    6.0953    0.7875 H       1  UNL1        0.0000
     90 H           6.4741    7.7470    1.3977 H       1  UNL1        0.0000
     91 C           6.7794    7.0989    4.0655 C.3     1  UNL1        0.0000
     92 H           6.8929    8.1523    3.8110 H       1  UNL1        0.0000
     93 H           7.4782    6.8694    4.8663 H       1  UNL1        0.0000
     94 H           5.7646    6.9423    4.4234 H       1  UNL1        0.0000
@<TRIPOS>BOND
     1    74    71    1
     2    73    71    1
     3    72    71    1
     4    21    20    1
     5    71    65    1
     6    29    28    1
     7    23    22    1
     8    20    22   ar
     9    20    18   ar
    10    56    55    1
    11    19    18    1
    12    22    24   ar
    13    27    26    1
    14    18    16   ar
    15    28    26   ar
    16    28    30   ar
    17    59    57    1
    18    65    66    1
    19    65    67    1
    20    65     3    1
    21    58    57    1
    22    68    67    1
    23    31    30    1
    24    26    25   ar
    25    70    67    1
    26    55    57    1
    27    55    61    1
    28    55     3    1
    29    57    60    1
    30    24    15   ar
    31    24     3    1
    32    30    32   ar
    33    67    69    1
    34    64    61    1
    35    16    15   ar
    36    16    17    1
    37    63    61    1
    38    61    62    1
    39    15     1    1
    40    25    34   ar
    41    25     1    1
    42    89    87    1
    43    32    34   ar
    44    32    33    1
    45    90    87    1
    46    34     4    1
    47     1     5    1
    48    40    37    1
    49    87    88    1
    50    87    85    1
    51     7     6    1
    52    39    37    1
    53    38    37    1
    54    37    35    1
    55    86    85    1
    56    85     4    1
    57    85    91    1
    58     5     6   ar
    59     5    14   ar
    60     6     8   ar
    61    79    77    1
    62     4    75    1
    63    42    41    1
    64    44    41    1
    65    35     2    1
    66    35    41    1
    67    35    36    1
    68    92    91    1
    69     2    14    1
    70     2    45    1
    71    14    12   ar
    72     8     9    1
    73     8    10   ar
    74    41    43    1
    75    91    94    1
    76    91    93    1
    77    77    80    1
    78    77    75    1
    79    77    78    1
    80    76    75    1
    81    75    81    1
    82    12    10   ar
    83    12    13    1
    84    10    11    1
    85    49    47    1
    86    50    47    1
    87    45    47    1
    88    45    46    1
    89    45    51    1
    90    52    51    1
    91    81    82    1
    92    81    83    1
    93    81    84    1
    94    47    48    1
    95    51    53    1
    96    51    54    1
