@<TRIPOS>MOLECULE
1,2
 52 55 0 0 0
SMALL
GASTEIGER

@<TRIPOS>ATOM
      1 P           2.0142   15.7820   12.2039 P.3     1  UNL1       -0.0435
      2 P           2.5739   18.7636   12.4676 P.3     1  UNL1       -0.0435
      3 C           3.6784   16.3654   11.5785 C.3     1  UNL1       -0.0199
      4 C           4.0615   17.7281   12.1263 C.3     1  UNL1       -0.0199
      5 C           1.3573   15.2665   10.5729 C.ar    1  UNL1       -0.0189
      6 C           1.0268   16.3054    9.7066 C.ar    1  UNL1       -0.0538
      7 C           0.5882   16.0470    8.4238 C.ar    1  UNL1       -0.0612
      8 C           0.4777   14.7368    7.9855 C.ar    1  UNL1       -0.0617
      9 C           0.7966   13.6982    8.8422 C.ar    1  UNL1       -0.0612
     10 C           1.2307   13.9559   10.1314 C.ar    1  UNL1       -0.0538
     11 C           2.4735   14.1690   12.9139 C.ar    1  UNL1       -0.0189
     12 C           1.8838   13.7855   14.1088 C.ar    1  UNL1       -0.0538
     13 C           2.2074   12.5816   14.7079 C.ar    1  UNL1       -0.0612
     14 C           3.1284   11.7412   14.1073 C.ar    1  UNL1       -0.0617
     15 C           3.7141   12.1073   12.9051 C.ar    1  UNL1       -0.0612
     16 C           3.3912   13.3116   12.3079 C.ar    1  UNL1       -0.0538
     17 C           2.2125   19.5896   10.8895 C.ar    1  UNL1       -0.0189
     18 C           1.2269   20.5729   10.9507 C.ar    1  UNL1       -0.0538
     19 C           0.8217   21.2408    9.8123 C.ar    1  UNL1       -0.0612
     20 C           1.3871   20.9186    8.5882 C.ar    1  UNL1       -0.0617
     21 C           2.3608   19.9370    8.5153 C.ar    1  UNL1       -0.0612
     22 C           2.7780   19.2760    9.6585 C.ar    1  UNL1       -0.0538
     23 C           3.4524   20.0844   13.3666 C.ar    1  UNL1       -0.0189
     24 C           3.8902   19.7750   14.6529 C.ar    1  UNL1       -0.0538
     25 C           4.5607   20.7154   15.4101 C.ar    1  UNL1       -0.0612
     26 C           4.8071   21.9768   14.8906 C.ar    1  UNL1       -0.0617
     27 C           4.3895   22.2854   13.6079 C.ar    1  UNL1       -0.0612
     28 C           3.7184   21.3448   12.8444 C.ar    1  UNL1       -0.0538
     29 H           4.4330   15.6250   11.8636 H       1  UNL1        0.0323
     30 H           3.6200   16.3886   10.4845 H       1  UNL1        0.0323
     31 H           4.7602   18.2590   11.4688 H       1  UNL1        0.0323
     32 H           4.5399   17.6178   13.1073 H       1  UNL1        0.0323
     33 H           1.1231   17.3277   10.0521 H       1  UNL1        0.0624
     34 H           0.3391   16.8665    7.7641 H       1  UNL1        0.0618
     35 H           0.1422   14.5271    6.9802 H       1  UNL1        0.0618
     36 H           0.7082   12.6748    8.5066 H       1  UNL1        0.0618
     37 H           1.4588   13.1313   10.7903 H       1  UNL1        0.0624
     38 H           1.1718   14.4546   14.5724 H       1  UNL1        0.0624
     39 H           1.7436   12.3075   15.6445 H       1  UNL1        0.0618
     40 H           3.3914   10.8017   14.5709 H       1  UNL1        0.0618
     41 H           4.4275   11.4488   12.4297 H       1  UNL1        0.0618
     42 H           3.8478   13.5776   11.3633 H       1  UNL1        0.0624
     43 H           0.7791   20.8032   11.9103 H       1  UNL1        0.0624
     44 H           0.0606   22.0048    9.8775 H       1  UNL1        0.0618
     45 H           1.0681   21.4314    7.6925 H       1  UNL1        0.0618
     46 H           2.8010   19.6826    7.5614 H       1  UNL1        0.0618
     47 H           3.5403   18.5146    9.5784 H       1  UNL1        0.0624
     48 H           3.6847   18.7938   15.0637 H       1  UNL1        0.0624
     49 H           4.8899   20.4659   16.4085 H       1  UNL1        0.0618
     50 H           5.3251   22.7161   15.4840 H       1  UNL1        0.0618
     51 H           4.5858   23.2648   13.1952 H       1  UNL1        0.0618
     52 H           3.3975   21.6010   11.8444 H       1  UNL1        0.0624
@<TRIPOS>BOND
     1    35     8    1
     2    46    21    1
     3    45    20    1
     4    34     7    1
     5     8     7   ar
     6     8     9   ar
     7     7     6   ar
     8    36     9    1
     9    21    20   ar
    10    21    22   ar
    11    20    19   ar
    12     9    10   ar
    13    47    22    1
    14    22    17   ar
    15     6    33    1
    16     6     5   ar
    17    19    44    1
    18    19    18   ar
    19    10     5   ar
    20    10    37    1
    21    30     3    1
    22     5     1    1
    23    17    18   ar
    24    17     2    1
    25    18    43    1
    26    42    16    1
    27    31     4    1
    28     3    29    1
    29     3     4    1
    30     3     1    1
    31    52    28    1
    32     4     2    1
    33     4    32    1
    34     1    11    1
    35    16    15   ar
    36    16    11   ar
    37    41    15    1
    38     2    23    1
    39    28    23   ar
    40    28    27   ar
    41    15    14   ar
    42    11    12   ar
    43    51    27    1
    44    23    24   ar
    45    27    26   ar
    46    14    40    1
    47    14    13   ar
    48    12    38    1
    49    12    13   ar
    50    24    48    1
    51    24    25   ar
    52    13    39    1
    53    26    25   ar
    54    26    50    1
    55    25    49    1
