@<TRIPOS>MOLECULE
1,2
 24 23 0 0 0
SMALL
GASTEIGER

@<TRIPOS>ATOM
      1 P          15.4658    1.8778    3.1892 P.3     1  UNL1       -0.1119
      2 P          13.2213   -0.2553    3.9125 P.3     1  UNL1       -0.1119
      3 C          15.4848    0.1986    2.4078 C.3     1  UNL1       -0.0288
      4 C          15.1396    2.9611    1.7522 C.3     1  UNL1       -0.0445
      5 C          17.2684    2.1235    3.4296 C.3     1  UNL1       -0.0445
      6 C          14.0550   -0.2965    2.2580 C.3     1  UNL1       -0.0288
      7 C          13.6832   -1.9152    4.5499 C.3     1  UNL1       -0.0445
      8 C          11.4790   -0.5712    3.4559 C.3     1  UNL1       -0.0445
      9 H          16.0061    0.2384    1.4450 H       1  UNL1        0.0316
     10 H          16.0440   -0.4517    3.0869 H       1  UNL1        0.0316
     11 H          15.3726    3.9844    2.0377 H       1  UNL1        0.0277
     12 H          15.7452    2.6707    0.8934 H       1  UNL1        0.0277
     13 H          14.0818    2.9056    1.5077 H       1  UNL1        0.0277
     14 H          17.5904    1.4680    4.2371 H       1  UNL1        0.0277
     15 H          17.8192    1.8910    2.5179 H       1  UNL1        0.0277
     16 H          17.4484    3.1586    3.7182 H       1  UNL1        0.0277
     17 H          14.0167   -1.3080    1.8400 H       1  UNL1        0.0316
     18 H          13.4991    0.3828    1.6099 H       1  UNL1        0.0316
     19 H          13.1988   -2.0658    5.5130 H       1  UNL1        0.0277
     20 H          13.3674   -2.6904    3.8514 H       1  UNL1        0.0277
     21 H          14.7591   -1.9565    4.6995 H       1  UNL1        0.0277
     22 H          11.0462    0.3480    3.0745 H       1  UNL1        0.0277
     23 H          11.4084   -1.3612    2.7082 H       1  UNL1        0.0277
     24 H          10.9394   -0.8681    4.3545 H       1  UNL1        0.0277
@<TRIPOS>BOND
     1    12     4    1
     2     9     3    1
     3    13     4    1
     4    18     6    1
     5     4    11    1
     6     4     1    1
     7    17     6    1
     8     6     3    1
     9     6     2    1
    10     3    10    1
    11     3     1    1
    12    15     5    1
    13    23     8    1
    14    22     8    1
    15     1     5    1
    16     5    16    1
    17     5    14    1
    18     8     2    1
    19     8    24    1
    20    20     7    1
    21     2     7    1
    22     7    21    1
    23     7    19    1
