@<TRIPOS>MOLECULE
1,2
 24 23 0 0 0
SMALL
GASTEIGER

@<TRIPOS>ATOM
      1 P          12.7025    1.3982    7.2309 P.3     1  UNL1       -0.1119
      2 P          15.0330    3.4449    6.6108 P.3     1  UNL1       -0.1119
      3 C          13.4719    2.3631    8.6172 C.3     1  UNL1       -0.0288
      4 C          12.6438   -0.2637    8.0087 C.3     1  UNL1       -0.0445
      5 C          10.9541    1.9150    7.3282 C.3     1  UNL1       -0.0445
      6 C          13.9541    3.7056    8.0913 C.3     1  UNL1       -0.0288
      7 C          16.6236    3.0060    7.4163 C.3     1  UNL1       -0.0445
      8 C          15.3894    5.1814    6.1498 C.3     1  UNL1       -0.0445
      9 H          12.7534    2.4802    9.4361 H       1  UNL1        0.0316
     10 H          14.3211    1.7731    8.9759 H       1  UNL1        0.0316
     11 H          11.9609   -0.8937    7.4401 H       1  UNL1        0.0277
     12 H          13.6438   -0.6926    7.9634 H       1  UNL1        0.0277
     13 H          12.3120   -0.2001    9.0453 H       1  UNL1        0.0277
     14 H          10.5379    1.7156    8.3161 H       1  UNL1        0.0277
     15 H          10.9020    2.9774    7.1045 H       1  UNL1        0.0277
     16 H          10.3958    1.3715    6.5674 H       1  UNL1        0.0277
     17 H          14.4971    4.2696    8.8575 H       1  UNL1        0.0316
     18 H          13.1062    4.2984    7.7442 H       1  UNL1        0.0316
     19 H          16.5437    2.0108    7.8467 H       1  UNL1        0.0277
     20 H          17.3980    2.9808    6.6514 H       1  UNL1        0.0277
     21 H          16.8837    3.7333    8.1853 H       1  UNL1        0.0277
     22 H          15.7663    5.7358    7.0097 H       1  UNL1        0.0277
     23 H          16.1359    5.1865    5.3565 H       1  UNL1        0.0277
     24 H          14.4805    5.6448    5.7794 H       1  UNL1        0.0277
@<TRIPOS>BOND
     1    23     8    1
     2    24     8    1
     3     8     2    1
     4     8    22    1
     5    16     5    1
     6     2     7    1
     7     2     6    1
     8    20     7    1
     9    15     5    1
    10     1     5    1
    11     1     4    1
    12     1     3    1
    13     5    14    1
    14     7    19    1
    15     7    21    1
    16    11     4    1
    17    18     6    1
    18    12     4    1
    19     4    13    1
    20     6     3    1
    21     6    17    1
    22     3    10    1
    23     3     9    1
