@<TRIPOS>MOLECULE
1,23
 44 45 0 0 0
SMALL
GASTEIGER

@<TRIPOS>ATOM
      1 P           4.9125   -5.8171    3.6364 P.3     1  UNL1        0.0000
      2 SI          5.7406   -7.9109    3.3639 Si      1  UNL1        0.0000
      3 C           3.8237   -5.6023    2.2126 C.ar    1  UNL1        0.0000
      4 C           4.3056   -4.9381    1.0890 C.ar    1  UNL1        0.0000
      5 C           3.5077   -4.7943   -0.0307 C.ar    1  UNL1        0.0000
      6 C           2.2215   -5.3091   -0.0360 C.ar    1  UNL1        0.0000
      7 C           1.7339   -5.9677    1.0816 C.ar    1  UNL1        0.0000
      8 C           2.5299   -6.1182    2.2011 C.ar    1  UNL1        0.0000
      9 C           4.3132   -9.1781    3.3039 C.3     1  UNL1        0.0000
     10 C           6.6707   -7.8350    1.6950 C.3     1  UNL1        0.0000
     11 H           3.9011   -6.1749    4.5354 H       1  UNL1        0.0000
     12 H           5.3056   -4.5239    1.1055 H       1  UNL1        0.0000
     13 H           3.8856   -4.2736   -0.8982 H       1  UNL1        0.0000
     14 H           1.5954   -5.1903   -0.9078 H       1  UNL1        0.0000
     15 H           0.7279   -6.3617    1.0802 H       1  UNL1        0.0000
     16 H           2.1483   -6.6246    3.0783 H       1  UNL1        0.0000
     17 H           3.6378   -8.9616    2.4813 H       1  UNL1        0.0000
     18 H           3.7357   -9.1682    4.2231 H       1  UNL1        0.0000
     19 H           4.6974  -10.1824    3.1634 H       1  UNL1        0.0000
     20 H           5.9809   -7.6654    0.8712 H       1  UNL1        0.0000
     21 H           7.2178   -8.7494    1.4886 H       1  UNL1        0.0000
     22 H           7.3839   -7.0124    1.6997 H       1  UNL1        0.0000
     23 P           8.0198   -5.8170    4.9775 P.3     1  UNL1        0.0000
     24 SI          7.1919   -7.9112    5.2494 Si      1  UNL1        0.0000
     25 C           9.1090   -5.6022    6.4011 C.ar    1  UNL1        0.0000
     26 H           9.0310   -6.1752    4.0785 H       1  UNL1        0.0000
     27 C           8.6193   -9.1783    5.3098 C.3     1  UNL1        0.0000
     28 C           6.2621   -7.8348    6.9185 C.3     1  UNL1        0.0000
     29 C           8.6270   -4.9383    7.5248 C.ar    1  UNL1        0.0000
     30 C          10.4028   -6.1180    6.4125 C.ar    1  UNL1        0.0000
     31 H           9.2949   -8.9614    6.1323 H       1  UNL1        0.0000
     32 H           9.1967   -9.1686    4.3906 H       1  UNL1        0.0000
     33 H           8.2352  -10.1826    5.4508 H       1  UNL1        0.0000
     34 H           6.9519   -7.6648    7.7422 H       1  UNL1        0.0000
     35 H           5.7151   -8.7492    7.1252 H       1  UNL1        0.0000
     36 H           5.5487   -7.0123    6.9138 H       1  UNL1        0.0000
     37 C           9.4248   -4.7944    8.6445 C.ar    1  UNL1        0.0000
     38 H           7.6269   -4.5242    7.5084 H       1  UNL1        0.0000
     39 C          11.1988   -5.9675    7.5320 C.ar    1  UNL1        0.0000
     40 H          10.7845   -6.6242    5.5353 H       1  UNL1        0.0000
     41 C          10.7111   -5.3091    8.6498 C.ar    1  UNL1        0.0000
     42 H           9.0469   -4.2740    9.5120 H       1  UNL1        0.0000
     43 H          12.2048   -6.3614    7.5334 H       1  UNL1        0.0000
     44 H          11.3372   -5.1903    9.5216 H       1  UNL1        0.0000
@<TRIPOS>BOND
     1    14     6    1
     2    13     5    1
     3     6     5   ar
     4     6     7   ar
     5     5     4   ar
     6    20    10    1
     7    15     7    1
     8     7     8   ar
     9     4    12    1
    10     4     3   ar
    11    21    10    1
    12    10    22    1
    13    10     2    1
    14     8     3   ar
    15     8    16    1
    16     3     1    1
    17    17     9    1
    18    19     9    1
    19     9     2    1
    20     9    18    1
    21     2     1    1
    22     2    24    1
    23     1    11    1
    24    26    23    1
    25    32    27    1
    26    23    24    1
    27    23    25    1
    28    24    27    1
    29    24    28    1
    30    27    33    1
    31    27    31    1
    32    40    30    1
    33    25    30   ar
    34    25    29   ar
    35    30    39   ar
    36    36    28    1
    37    28    35    1
    38    28    34    1
    39    38    29    1
    40    29    37   ar
    41    39    43    1
    42    39    41   ar
    43    37    41   ar
    44    37    42    1
    45    41    44    1
