@<TRIPOS>MOLECULE
1,2
 71 75 0 0 0
SMALL
GASTEIGER

@<TRIPOS>ATOM
      1 P          14.2766    4.5651   16.9157 P.3     1  UNL1        0.0000
      2 P          14.2730    7.3716   16.8448 P.3     1  UNL1        0.0000
      3 SI         18.8495    5.6116   17.4639 Si      1  UNL1        0.0000
      4 O          17.2221    5.7028   17.8212 O.3     1  UNL1        0.0000
      5 N          14.4772    5.9866   17.8665 N.pl3   1  UNL1        0.0000
      6 C          16.6442    5.9155   19.0133 C.ar    1  UNL1        0.0000
      7 C          15.2496    6.0780   19.0572 C.ar    1  UNL1        0.0000
      8 C          14.6276    6.3788   20.2627 C.ar    1  UNL1        0.0000
      9 H          13.5636    6.5607   20.2702 H       1  UNL1        0.0000
     10 C          15.3561    6.4725   21.4344 C.ar    1  UNL1        0.0000
     11 H          14.8570    6.7046   22.3624 H       1  UNL1        0.0000
     12 C          16.7238    6.2681   21.4011 C.ar    1  UNL1        0.0000
     13 H          17.3043    6.3296   22.3090 H       1  UNL1        0.0000
     14 C          17.3590    5.9995   20.2037 C.ar    1  UNL1        0.0000
     15 H          18.4267    5.8642   20.1791 H       1  UNL1        0.0000
     16 C          12.8931    3.6703   17.7084 C.ar    1  UNL1        0.0000
     17 C          12.1986    2.8033   16.8681 C.ar    1  UNL1        0.0000
     18 H          12.4922    2.7324   15.8255 H       1  UNL1        0.0000
     19 C          11.1363    2.0667   17.3558 C.ar    1  UNL1        0.0000
     20 H          10.5942    1.4010   16.7010 H       1  UNL1        0.0000
     21 C          10.7585    2.1946   18.6837 C.ar    1  UNL1        0.0000
     22 H           9.9216    1.6279   19.0639 H       1  UNL1        0.0000
     23 C          11.4485    3.0539   19.5216 C.ar    1  UNL1        0.0000
     24 H          11.1520    3.1549   20.5558 H       1  UNL1        0.0000
     25 C          12.5175    3.7899   19.0395 C.ar    1  UNL1        0.0000
     26 H          13.0531    4.4584   19.6968 H       1  UNL1        0.0000
     27 C          15.5894    3.3659   17.3302 C.ar    1  UNL1        0.0000
     28 C          15.8302    2.9309   18.6292 C.ar    1  UNL1        0.0000
     29 H          15.2944    3.3697   19.4585 H       1  UNL1        0.0000
     30 C          16.7553    1.9285   18.8544 C.ar    1  UNL1        0.0000
     31 H          16.9483    1.5941   19.8633 H       1  UNL1        0.0000
     32 C          17.4213    1.3407   17.7901 C.ar    1  UNL1        0.0000
     33 H          18.1328    0.5487   17.9729 H       1  UNL1        0.0000
     34 C          17.1702    1.7622   16.4945 C.ar    1  UNL1        0.0000
     35 H          17.6845    1.2989   15.6654 H       1  UNL1        0.0000
     36 C          16.2559    2.7746   16.2626 C.ar    1  UNL1        0.0000
     37 H          16.0461    3.1119   15.2542 H       1  UNL1        0.0000
     38 C          12.9989    8.3198   17.7398 C.ar    1  UNL1        0.0000
     39 C          11.9965    7.6831   18.4648 C.ar    1  UNL1        0.0000
     40 H          11.9883    6.6037   18.5323 H       1  UNL1        0.0000
     41 C          10.9988    8.4288   19.0654 C.ar    1  UNL1        0.0000
     42 H          10.2248    7.9315   19.6314 H       1  UNL1        0.0000
     43 C          10.9804    9.8074   18.9278 C.ar    1  UNL1        0.0000
     44 H          10.1968   10.3865   19.3936 H       1  UNL1        0.0000
     45 C          11.9566   10.4421   18.1766 C.ar    1  UNL1        0.0000
     46 H          11.9314   11.5146   18.0516 H       1  UNL1        0.0000
     47 C          12.9600    9.7024   17.5787 C.ar    1  UNL1        0.0000
     48 H          13.7181   10.1908   16.9803 H       1  UNL1        0.0000
     49 C          15.7325    8.4260   17.1651 C.ar    1  UNL1        0.0000
     50 C          16.5726    8.7202   16.0965 C.ar    1  UNL1        0.0000
     51 H          16.3576    8.3019   15.1212 H       1  UNL1        0.0000
     52 C          17.6639    9.5514   16.2802 C.ar    1  UNL1        0.0000
     53 H          18.3119    9.7818   15.4479 H       1  UNL1        0.0000
     54 C          17.9195   10.0934   17.5286 C.ar    1  UNL1        0.0000
     55 H          18.7699   10.7433   17.6730 H       1  UNL1        0.0000
     56 C          17.0790    9.8086   18.5942 C.ar    1  UNL1        0.0000
     57 H          17.2731   10.2371   19.5668 H       1  UNL1        0.0000
     58 C          15.9834    8.9844   18.4160 C.ar    1  UNL1        0.0000
     59 H          15.3157    8.7863   19.2421 H       1  UNL1        0.0000
     60 C          18.9705    5.5542   15.5832 C.3     1  UNL1        0.0000
     61 H          18.4201    4.7167   15.1709 H       1  UNL1        0.0000
     62 H          20.0097    5.4513   15.2876 H       1  UNL1        0.0000
     63 H          18.5776    6.4539   15.1240 H       1  UNL1        0.0000
     64 C          19.6078    4.0274   18.2214 C.3     1  UNL1        0.0000
     65 H          19.2412    3.8211   19.2236 H       1  UNL1        0.0000
     66 H          20.6899    4.1005   18.2739 H       1  UNL1        0.0000
     67 H          19.3712    3.1603   17.6121 H       1  UNL1        0.0000
     68 C          19.7506    7.1495   18.1650 C.3     1  UNL1        0.0000
     69 H          19.0461    7.8680   18.5755 H       1  UNL1        0.0000
     70 H          20.3125    7.6571   17.3867 H       1  UNL1        0.0000
     71 H          20.4568    6.8926   18.9503 H       1  UNL1        0.0000
@<TRIPOS>BOND
     1    51    50    1
     2    63    60    1
     3    61    60    1
     4    37    36    1
     5    62    60    1
     6    53    52    1
     7    60     3    1
     8    35    34    1
     9    18    17    1
    10    50    52   ar
    11    50    49   ar
    12    36    34   ar
    13    36    27   ar
    14    52    54   ar
    15    34    32   ar
    16    20    19    1
    17     2    49    1
    18     2    38    1
    19     2     5    1
    20    17    19   ar
    21    17    16   ar
    22     1    27    1
    23     1    16    1
    24     1     5    1
    25    48    47    1
    26    49    58   ar
    27    27    28   ar
    28    19    21   ar
    29    70    68    1
    30     3     4    1
    31     3    68    1
    32     3    64    1
    33    54    55    1
    34    54    56   ar
    35    47    38   ar
    36    47    45   ar
    37    67    64    1
    38    16    25   ar
    39    38    39   ar
    40    32    33    1
    41    32    30   ar
    42     4     6    1
    43     5     7    1
    44    46    45    1
    45    68    69    1
    46    68    71    1
    47    45    43   ar
    48    64    66    1
    49    64    65    1
    50    58    56   ar
    51    58    59    1
    52    39    40    1
    53    39    41   ar
    54    56    57    1
    55    28    30   ar
    56    28    29    1
    57    21    22    1
    58    21    23   ar
    59    30    31    1
    60    43    41   ar
    61    43    44    1
    62     6     7   ar
    63     6    14   ar
    64    25    23   ar
    65    25    26    1
    66     7     8   ar
    67    41    42    1
    68    23    24    1
    69    15    14    1
    70    14    12   ar
    71     8     9    1
    72     8    10   ar
    73    12    10   ar
    74    12    13    1
    75    10    11    1
