@<TRIPOS>MOLECULE
1,2
 52 55 0 0 0
SMALL
GASTEIGER

@<TRIPOS>ATOM
      1 P           4.8492   10.9880   16.7490 P.3     1  UNL1       -0.0435
      2 P           1.9702    9.8441   17.4592 P.3     1  UNL1       -0.0435
      3 C           2.1019   11.1742   16.1741 C.3     1  UNL1       -0.0199
      4 H           2.0869   10.6460   15.2134 H       1  UNL1        0.0323
      5 H           1.2082   11.8051   16.2195 H       1  UNL1        0.0323
      6 C           0.7238    8.7995   16.6219 C.ar    1  UNL1       -0.0189
      7 C           5.6227   10.6671   15.1286 C.ar    1  UNL1       -0.0189
      8 C           0.8705   11.9348   19.0245 C.ar    1  UNL1       -0.0538
      9 H           1.4716   12.6296   18.4582 H       1  UNL1        0.0624
     10 C           5.9490   12.2838   17.3921 C.ar    1  UNL1       -0.0189
     11 C           5.4474    9.9708   12.8325 C.ar    1  UNL1       -0.0612
     12 H           4.8415    9.6416   12.0017 H       1  UNL1        0.0618
     13 C           4.8562   10.2154   14.0575 C.ar    1  UNL1       -0.0538
     14 H           3.7938   10.0566   14.1774 H       1  UNL1        0.0624
     15 C           6.9951   10.8294   14.9633 C.ar    1  UNL1       -0.0538
     16 H           7.6004   11.1698   15.7917 H       1  UNL1        0.0624
     17 C           3.3666   12.0089   16.3069 C.3     1  UNL1       -0.0199
     18 H           3.2677   12.7284   17.1269 H       1  UNL1        0.0323
     19 H           3.5686   12.5554   15.3798 H       1  UNL1        0.0323
     20 C           0.0752   12.4070   20.0532 C.ar    1  UNL1       -0.0612
     21 H           0.0670   13.4630   20.2782 H       1  UNL1        0.0618
     22 C           6.1590   13.4310   16.6285 C.ar    1  UNL1       -0.0538
     23 H           5.7033   13.5234   15.6524 H       1  UNL1        0.0624
     24 C           6.5651   12.1645   18.6286 C.ar    1  UNL1       -0.0538
     25 H           6.3909   11.2763   19.2231 H       1  UNL1        0.0624
     26 C           0.8969   10.5753   18.7352 C.ar    1  UNL1       -0.0189
     27 C           7.5829   10.5734   13.7385 C.ar    1  UNL1       -0.0612
     28 H           8.6468   10.7114   13.6186 H       1  UNL1        0.0618
     29 C           0.9707    7.4802   16.2750 C.ar    1  UNL1       -0.0538
     30 H           1.9205    7.0246   16.5169 H       1  UNL1        0.0624
     31 C          -0.5110    9.3680   16.3070 C.ar    1  UNL1       -0.0538
     32 H          -0.7233   10.3890   16.5921 H       1  UNL1        0.0624
     33 C           6.8111   10.1500   12.6696 C.ar    1  UNL1       -0.0617
     34 H           7.2713    9.9610   11.7115 H       1  UNL1        0.0618
     35 C           6.9598   14.4468   17.1152 C.ar    1  UNL1       -0.0612
     36 H           7.1152   15.3363   16.5231 H       1  UNL1        0.0618
     37 C           0.0077    6.7370   15.6138 C.ar    1  UNL1       -0.0612
     38 H           0.2141    5.7104   15.3511 H       1  UNL1        0.0618
     39 C          -0.6904   10.1782   20.5011 C.ar    1  UNL1       -0.0612
     40 H          -1.3009    9.4938   21.0711 H       1  UNL1        0.0618
     41 C          -0.7005   11.5320   20.7955 C.ar    1  UNL1       -0.0617
     42 H          -1.3164   11.9061   21.5991 H       1  UNL1        0.0618
     43 C          -1.4687    8.6250   15.6462 C.ar    1  UNL1       -0.0612
     44 H          -2.4214    9.0717   15.4045 H       1  UNL1        0.0618
     45 C           0.1067    9.7025   19.4778 C.ar    1  UNL1       -0.0538
     46 H           0.1198    8.6486   19.2338 H       1  UNL1        0.0624
     47 C          -1.2114    7.3075   15.2960 C.ar    1  UNL1       -0.0617
     48 H          -1.9631    6.7302   14.7795 H       1  UNL1        0.0618
     49 C           7.3651   13.1832   19.1139 C.ar    1  UNL1       -0.0612
     50 H           7.8291   13.0858   20.0843 H       1  UNL1        0.0618
     51 C           7.5589   14.3281   18.3600 C.ar    1  UNL1       -0.0617
     52 H           8.1759   15.1282   18.7395 H       1  UNL1        0.0618
@<TRIPOS>BOND
     1    34    33    1
     2    12    11    1
     3    33    11   ar
     4    33    27   ar
     5    11    13   ar
     6    28    27    1
     7    27    15   ar
     8    13    14    1
     9    13     7   ar
    10    48    47    1
    11    15     7   ar
    12    15    16    1
    13     7     1    1
    14     4     3    1
    15    47    37   ar
    16    47    43   ar
    17    38    37    1
    18    19    17    1
    19    44    43    1
    20    37    29   ar
    21    43    31   ar
    22    23    22    1
    23     3     5    1
    24     3    17    1
    25     3     2    1
    26    29    30    1
    27    29     6   ar
    28    17     1    1
    29    17    18    1
    30    31    32    1
    31    31     6   ar
    32    36    35    1
    33     6     2    1
    34    22    35   ar
    35    22    10   ar
    36     1    10    1
    37    35    51   ar
    38    10    24   ar
    39     2    26    1
    40    51    52    1
    41    51    49   ar
    42     9     8    1
    43    24    49   ar
    44    24    25    1
    45    26     8   ar
    46    26    45   ar
    47     8    20   ar
    48    49    50    1
    49    46    45    1
    50    45    39   ar
    51    20    21    1
    52    20    41   ar
    53    39    41   ar
    54    39    40    1
    55    41    42    1
