@<TRIPOS>MOLECULE
1,2
 52 55 0 0 0
SMALL
GASTEIGER

@<TRIPOS>ATOM
      1 P           3.5523    7.5395   19.6021 P.3     1  UNL1       -0.0435
      2 P           6.2833    8.7159   18.8538 P.3     1  UNL1       -0.0435
      3 C           8.7338    9.8601   18.0703 C.ar    1  UNL1       -0.0538
      4 H           8.6623   10.4767   18.9542 H       1  UNL1        0.0624
      5 C           7.7432    8.9220   17.7877 C.ar    1  UNL1       -0.0189
      6 C           2.8341    7.8338   21.2471 C.ar    1  UNL1       -0.0189
      7 C           2.4927    6.1724   19.0157 C.ar    1  UNL1       -0.0189
      8 C           6.8640    9.1396   20.5285 C.ar    1  UNL1       -0.0189
      9 C           9.8202    9.9984   17.2254 C.ar    1  UNL1       -0.0612
     10 H          10.5862   10.7232   17.4573 H       1  UNL1        0.0618
     11 C           7.8461    8.1538   16.6302 C.ar    1  UNL1       -0.0538
     12 H           7.0694    7.4425   16.3737 H       1  UNL1        0.0624
     13 C           1.1611    6.0811   19.4086 C.ar    1  UNL1       -0.0538
     14 H           0.7637    6.7882   20.1228 H       1  UNL1        0.0624
     15 C           2.7332    6.7708   22.1444 C.ar    1  UNL1       -0.0538
     16 H           3.0762    5.7863   21.8578 H       1  UNL1        0.0624
     17 C           6.2409    6.8813   19.1152 C.3     1  UNL1       -0.0199
     18 H           6.0800    6.3792   18.1542 H       1  UNL1        0.0323
     19 H           7.1980    6.5438   19.5264 H       1  UNL1        0.0323
     20 C           5.0968    6.6022   20.0805 C.3     1  UNL1       -0.0199
     21 H           5.3709    6.9586   21.0806 H       1  UNL1        0.0323
     22 H           4.8765    5.5323   20.1410 H       1  UNL1        0.0323
     23 C           8.5344    8.9943   22.2483 C.ar    1  UNL1       -0.0612
     24 H           9.5261    8.7089   22.5657 H       1  UNL1        0.0618
     25 C           1.7152    8.2294   23.7540 C.ar    1  UNL1       -0.0617
     26 H           1.2777    8.3810   24.7291 H       1  UNL1        0.0618
     27 C           8.9351    8.2937   15.7910 C.ar    1  UNL1       -0.0612
     28 H           9.0063    7.6862   14.9016 H       1  UNL1        0.0618
     29 C           0.3547    5.0736   18.9117 C.ar    1  UNL1       -0.0612
     30 H          -0.6770    5.0113   19.2236 H       1  UNL1        0.0618
     31 C           8.1407    8.7648   20.9437 C.ar    1  UNL1       -0.0538
     32 H           8.8242    8.2985   20.2470 H       1  UNL1        0.0624
     33 C           2.1955    4.2220   17.6336 C.ar    1  UNL1       -0.0612
     34 H           2.6050    3.4933   16.9502 H       1  UNL1        0.0618
     35 C           0.8685    4.1436   18.0234 C.ar    1  UNL1       -0.0617
     36 H           0.2381    3.3551   17.6415 H       1  UNL1        0.0618
     37 C           3.0017    5.2342   18.1203 C.ar    1  UNL1       -0.0538
     38 H           4.0361    5.2873   17.8020 H       1  UNL1        0.0624
     39 C           2.1799    6.9731   23.3931 C.ar    1  UNL1       -0.0612
     40 H           2.1039    6.1490   24.0866 H       1  UNL1        0.0618
     41 C           7.6592    9.5821   23.1496 C.ar    1  UNL1       -0.0617
     42 H           7.9732    9.7570   24.1673 H       1  UNL1        0.0618
     43 C           2.3712    9.0906   21.6124 C.ar    1  UNL1       -0.0538
     44 H           2.4546    9.9122   20.9144 H       1  UNL1        0.0624
     45 C           1.8093    9.2839   22.8632 C.ar    1  UNL1       -0.0612
     46 H           1.4374   10.2597   23.1390 H       1  UNL1        0.0618
     47 C           9.9284    9.2116   16.0904 C.ar    1  UNL1       -0.0617
     48 H          10.7826    9.3168   15.4391 H       1  UNL1        0.0618
     49 C           5.9853    9.7165   21.4382 C.ar    1  UNL1       -0.0538
     50 H           4.9927   10.0005   21.1135 H       1  UNL1        0.0624
     51 C           6.3841    9.9381   22.7447 C.ar    1  UNL1       -0.0612
     52 H           5.6956   10.3879   23.4440 H       1  UNL1        0.0618
@<TRIPOS>BOND
     1    28    27    1
     2    48    47    1
     3    27    47   ar
     4    27    11   ar
     5    47     9   ar
     6    12    11    1
     7    11     5   ar
     8    34    33    1
     9     9    10    1
    10     9     3   ar
    11    33    35   ar
    12    33    37   ar
    13    36    35    1
    14     5     3   ar
    15     5     2    1
    16    38    37    1
    17    35    29   ar
    18     3     4    1
    19    37     7   ar
    20    18    17    1
    21     2    17    1
    22     2     8    1
    23    29    30    1
    24    29    13   ar
    25     7    13   ar
    26     7     1    1
    27    17    19    1
    28    17    20    1
    29    13    14    1
    30     1    20    1
    31     1     6    1
    32    20    22    1
    33    20    21    1
    34    32    31    1
    35     8    31   ar
    36     8    49   ar
    37    44    43    1
    38    31    23   ar
    39    50    49    1
    40     6    43   ar
    41     6    15   ar
    42    49    51   ar
    43    43    45   ar
    44    16    15    1
    45    15    39   ar
    46    23    24    1
    47    23    41   ar
    48    51    41   ar
    49    51    52    1
    50    45    46    1
    51    45    25   ar
    52    41    42    1
    53    39    25   ar
    54    39    40    1
    55    25    26    1
