@<TRIPOS>MOLECULE
1,3
 70 69 0 0 0
SMALL
GASTEIGER

@<TRIPOS>ATOM
      1 P           9.6978    7.0050    4.0750 P.3     1  UNL1        0.0000
      2 P          10.2130    8.4927    2.5507 P.3     1  UNL1        0.0000
      3 P           9.7922    6.8495    1.1633 P.3     1  UNL1        0.0000
      4 SI          9.0504    6.3564    6.9036 Si      1  UNL1        0.0000
      5 SI          9.1466    9.5420    5.9792 Si      1  UNL1        0.0000
      6 SI          9.3665    9.1665   -1.0297 Si      1  UNL1        0.0000
      7 SI          9.3504    5.9008   -1.6202 Si      1  UNL1        0.0000
      8 C           9.3749    7.6956    5.5730 C.3     1  UNL1        0.0000
      9 C          10.2594    4.9095    6.6097 C.3     1  UNL1        0.0000
     10 H          10.1487    4.4925    5.6109 H       1  UNL1        0.0000
     11 H          10.0914    4.1060    7.3201 H       1  UNL1        0.0000
     12 H          11.2913    5.2329    6.7201 H       1  UNL1        0.0000
     13 C           7.2295    5.8146    6.7474 C.3     1  UNL1        0.0000
     14 H           6.9379    5.7437    5.7018 H       1  UNL1        0.0000
     15 H           6.5622    6.5227    7.2284 H       1  UNL1        0.0000
     16 H           7.0649    4.8430    7.2018 H       1  UNL1        0.0000
     17 C           9.4160    6.9680    8.6718 C.3     1  UNL1        0.0000
     18 H           8.8668    7.8654    8.9279 H       1  UNL1        0.0000
     19 H          10.4719    7.1735    8.8114 H       1  UNL1        0.0000
     20 H           9.1386    6.2004    9.3865 H       1  UNL1        0.0000
     21 C          10.5603   10.1507    7.1088 C.3     1  UNL1        0.0000
     22 H          10.7002    9.4930    7.9588 H       1  UNL1        0.0000
     23 H          10.3324   11.1401    7.4928 H       1  UNL1        0.0000
     24 H          11.5068   10.2160    6.5821 H       1  UNL1        0.0000
     25 C           8.9942   10.7446    4.5065 C.3     1  UNL1        0.0000
     26 H           9.9413   10.9224    4.0089 H       1  UNL1        0.0000
     27 H           8.6216   11.7044    4.8535 H       1  UNL1        0.0000
     28 H           8.2957   10.3716    3.7635 H       1  UNL1        0.0000
     29 C           7.4636    9.6633    6.8738 C.3     1  UNL1        0.0000
     30 H           7.4426    9.0814    7.7873 H       1  UNL1        0.0000
     31 H           6.6588    9.3046    6.2397 H       1  UNL1        0.0000
     32 H           7.2415   10.6932    7.1353 H       1  UNL1        0.0000
     33 C          12.1218    8.3360    2.6205 C.3     1  UNL1        0.0000
     34 C          12.6420    6.9048    2.7119 C.3     1  UNL1        0.0000
     35 H          12.3428    6.3166    1.8410 H       1  UNL1        0.0000
     36 H          12.2858    6.4095    3.6184 H       1  UNL1        0.0000
     37 H          13.7321    6.9168    2.7460 H       1  UNL1        0.0000
     38 C          12.5701    9.1176    3.8524 C.3     1  UNL1        0.0000
     39 H          12.2490   10.1558    3.7904 H       1  UNL1        0.0000
     40 H          13.6562    9.1002    3.9383 H       1  UNL1        0.0000
     41 H          12.1434    8.6771    4.7540 H       1  UNL1        0.0000
     42 C          12.6490    8.9867    1.3445 C.3     1  UNL1        0.0000
     43 H          12.3233   10.0232    1.2758 H       1  UNL1        0.0000
     44 H          12.2821    8.4505    0.4688 H       1  UNL1        0.0000
     45 H          13.7383    8.9687    1.3313 H       1  UNL1        0.0000
     46 C           9.5743    7.3751   -0.4182 C.3     1  UNL1        0.0000
     47 C           7.7541    9.1714   -2.0534 C.3     1  UNL1        0.0000
     48 H           7.8067    8.5017   -2.9033 H       1  UNL1        0.0000
     49 H           7.5433   10.1667   -2.4322 H       1  UNL1        0.0000
     50 H           6.9072    8.8645   -1.4476 H       1  UNL1        0.0000
     51 C          10.8549    9.6784   -2.1103 C.3     1  UNL1        0.0000
     52 H          11.0658    8.9369   -2.8721 H       1  UNL1        0.0000
     53 H          11.7581    9.8175   -1.5251 H       1  UNL1        0.0000
     54 H          10.6456   10.6168   -2.6141 H       1  UNL1        0.0000
     55 C           9.0963   10.5078    0.2990 C.3     1  UNL1        0.0000
     56 H          10.0046   10.7550    0.8379 H       1  UNL1        0.0000
     57 H           8.3542   10.1961    1.0281 H       1  UNL1        0.0000
     58 H           8.7340   11.4198   -0.1675 H       1  UNL1        0.0000
     59 C           9.8511    6.3290   -3.4091 C.3     1  UNL1        0.0000
     60 H           9.3214    7.1893   -3.7988 H       1  UNL1        0.0000
     61 H           9.6321    5.4886   -4.0592 H       1  UNL1        0.0000
     62 H          10.9142    6.5301   -3.4872 H       1  UNL1        0.0000
     63 C          10.5336    4.5027   -1.0847 C.3     1  UNL1        0.0000
     64 H          10.3364    4.1812   -0.0641 H       1  UNL1        0.0000
     65 H          11.5701    4.8265   -1.1344 H       1  UNL1        0.0000
     66 H          10.4319    3.6335   -1.7269 H       1  UNL1        0.0000
     67 C           7.5237    5.3613   -1.5465 C.3     1  UNL1        0.0000
     68 H           6.8942    6.0079   -2.1495 H       1  UNL1        0.0000
     69 H           7.1527    5.3985   -0.5246 H       1  UNL1        0.0000
     70 H           7.3962    4.3455   -1.9063 H       1  UNL1        0.0000
@<TRIPOS>BOND
     1    61    59    1
     2    60    59    1
     3    62    59    1
     4    59     7    1
     5    48    47    1
     6    52    51    1
     7    54    51    1
     8    49    47    1
     9    68    67    1
    10    51    53    1
    11    51     6    1
    12    47    50    1
    13    47     6    1
    14    70    67    1
    15    66    63    1
    16     7    67    1
    17     7    63    1
    18     7    46    1
    19    67    69    1
    20    65    63    1
    21    63    64    1
    22     6    46    1
    23     6    55    1
    24    46     3    1
    25    58    55    1
    26    55    56    1
    27    55    57    1
    28    44    42    1
    29     3     2    1
    30    43    42    1
    31    45    42    1
    32    42    33    1
    33    35    34    1
    34     2    33    1
    35     2     1    1
    36    33    34    1
    37    33    38    1
    38    34    37    1
    39    34    36    1
    40    28    25    1
    41    39    38    1
    42    38    40    1
    43    38    41    1
    44    26    25    1
    45     1     8    1
    46    25    27    1
    47    25     5    1
    48     8     5    1
    49     8     4    1
    50    10     9    1
    51    14    13    1
    52     5    29    1
    53     5    21    1
    54    31    29    1
    55    24    21    1
    56     9    12    1
    57     9     4    1
    58     9    11    1
    59    13     4    1
    60    13    16    1
    61    13    15    1
    62    29    32    1
    63    29    30    1
    64     4    17    1
    65    21    23    1
    66    21    22    1
    67    17    19    1
    68    17    18    1
    69    17    20    1
