@<TRIPOS>MOLECULE
1,2
 52 55 0 0 0
SMALL
GASTEIGER

@<TRIPOS>ATOM
      1 P           3.8506    3.1111    0.5401 P.3     1  UNL1       -0.0435
      2 P           6.7855    3.1646   -0.5369 P.3     1  UNL1       -0.0435
      3 C           4.4443    4.5782   -0.4078 C.3     1  UNL1       -0.0199
      4 C           5.5040    4.1610   -1.4229 C.3     1  UNL1       -0.0199
      5 C           2.7236    3.9150    1.7246 C.ar    1  UNL1       -0.0189
      6 C           1.5932    4.5865    1.2665 C.ar    1  UNL1       -0.0538
      7 C           0.7526    5.2151    2.1644 C.ar    1  UNL1       -0.0612
      8 C           1.0287    5.1737    3.5226 C.ar    1  UNL1       -0.0617
      9 C           2.1448    4.4965    3.9826 C.ar    1  UNL1       -0.0612
     10 C           2.9905    3.8667    3.0864 C.ar    1  UNL1       -0.0538
     11 C           2.6184    2.2950   -0.5193 C.ar    1  UNL1       -0.0189
     12 C           2.0265    1.1650    0.0411 C.ar    1  UNL1       -0.0538
     13 C           0.9978    0.5207   -0.6172 C.ar    1  UNL1       -0.0612
     14 C           0.5621    0.9893   -1.8458 C.ar    1  UNL1       -0.0617
     15 C           1.1692    2.0928   -2.4191 C.ar    1  UNL1       -0.0612
     16 C           2.1952    2.7491   -1.7616 C.ar    1  UNL1       -0.0538
     17 C           7.8761    4.4684    0.1719 C.ar    1  UNL1       -0.0189
     18 C           8.9696    3.9505    0.8649 C.ar    1  UNL1       -0.0538
     19 C           9.8889    4.7846    1.4659 C.ar    1  UNL1       -0.0612
     20 C           9.7225    6.1589    1.3888 C.ar    1  UNL1       -0.0617
     21 C           8.6377    6.6829    0.7101 C.ar    1  UNL1       -0.0612
     22 C           7.7167    5.8450    0.1025 C.ar    1  UNL1       -0.0538
     23 C           7.9621    2.5899   -1.7940 C.ar    1  UNL1       -0.0189
     24 C           8.3292    3.4246   -2.8438 C.ar    1  UNL1       -0.0538
     25 C           9.2702    3.0011   -3.7634 C.ar    1  UNL1       -0.0612
     26 C           9.8637    1.7558   -3.6311 C.ar    1  UNL1       -0.0617
     27 C           9.5103    0.9295   -2.5780 C.ar    1  UNL1       -0.0612
     28 C           8.5580    1.3424   -1.6644 C.ar    1  UNL1       -0.0538
     29 H           4.8879    5.2388    0.3507 H       1  UNL1        0.0323
     30 H           3.6037    5.1092   -0.8678 H       1  UNL1        0.0323
     31 H           5.0773    3.5242   -2.2021 H       1  UNL1        0.0323
     32 H           5.9640    5.0338   -1.8950 H       1  UNL1        0.0323
     33 H           1.3670    4.6043    0.2086 H       1  UNL1        0.0624
     34 H          -0.1233    5.7363    1.8062 H       1  UNL1        0.0618
     35 H           0.3679    5.6650    4.2212 H       1  UNL1        0.0618
     36 H           2.3575    4.4551    5.0404 H       1  UNL1        0.0618
     37 H           3.8604    3.3281    3.4407 H       1  UNL1        0.0624
     38 H           2.3820    0.8071    1.0007 H       1  UNL1        0.0624
     39 H           0.5277   -0.3434   -0.1726 H       1  UNL1        0.0618
     40 H          -0.2431    0.4884   -2.3613 H       1  UNL1        0.0618
     41 H           0.8385    2.4508   -3.3833 H       1  UNL1        0.0618
     42 H           2.6543    3.6107   -2.2254 H       1  UNL1        0.0624
     43 H           9.0793    2.8728    0.9323 H       1  UNL1        0.0624
     44 H          10.7298    4.3678    2.0003 H       1  UNL1        0.0618
     45 H          10.4340    6.8189    1.8627 H       1  UNL1        0.0618
     46 H           8.5008    7.7537    0.6540 H       1  UNL1        0.0618
     47 H           6.8771    6.2876   -0.4153 H       1  UNL1        0.0624
     48 H           7.8884    4.4072   -2.9391 H       1  UNL1        0.0624
     49 H           9.5483    3.6486   -4.5828 H       1  UNL1        0.0618
     50 H          10.6043    1.4333   -4.3481 H       1  UNL1        0.0618
     51 H           9.9717   -0.0402   -2.4652 H       1  UNL1        0.0618
     52 H           8.2657    0.6897   -0.8532 H       1  UNL1        0.0624
@<TRIPOS>BOND
     1    49    25    1
     2    50    26    1
     3    25    26   ar
     4    25    24   ar
     5    26    27   ar
     6    41    15    1
     7    48    24    1
     8    24    23   ar
     9    27    51    1
    10    27    28   ar
    11    15    14   ar
    12    15    16   ar
    13    40    14    1
    14    42    16    1
    15    31     4    1
    16    32     4    1
    17    14    13   ar
    18    23    28   ar
    19    23     2    1
    20    16    11   ar
    21    28    52    1
    22     4     2    1
    23     4     3    1
    24    30     3    1
    25    13    39    1
    26    13    12   ar
    27     2    17    1
    28    11    12   ar
    29    11     1    1
    30    47    22    1
    31     3    29    1
    32     3     1    1
    33    12    38    1
    34    22    17   ar
    35    22    21   ar
    36    17    18   ar
    37    33     6    1
    38     1     5    1
    39    46    21    1
    40    21    20   ar
    41    18    43    1
    42    18    19   ar
    43     6     5   ar
    44     6     7   ar
    45    20    19   ar
    46    20    45    1
    47    19    44    1
    48     5    10   ar
    49    34     7    1
    50     7     8   ar
    51    10    37    1
    52    10     9   ar
    53     8     9   ar
    54     8    35    1
    55     9    36    1
