@<TRIPOS>MOLECULE
1,2
 52 55 0 0 0
SMALL
GASTEIGER

@<TRIPOS>ATOM
      1 P           0.9277    1.6808    9.7914 P.3     1  UNL1       -0.0435
      2 P           1.7257    2.2313    7.0821 P.3     1  UNL1       -0.0435
      3 C          -0.4879    2.3618    8.7906 C.3     1  UNL1       -0.0199
      4 H          -1.3597    1.7066    8.8772 H       1  UNL1        0.0323
      5 H          -0.7297    3.3118    9.2752 H       1  UNL1        0.0323
      6 C          -0.0865    2.6077    7.3334 C.3     1  UNL1       -0.0199
      7 H          -0.2457    3.6547    7.0688 H       1  UNL1        0.0323
      8 H          -0.6736    1.9896    6.6473 H       1  UNL1        0.0323
      9 C           0.5599   -0.1061    9.8832 C.ar    1  UNL1       -0.0189
     10 C          -0.1181   -0.7987    8.8859 C.ar    1  UNL1       -0.0538
     11 H          -0.5487   -0.2646    8.0514 H       1  UNL1        0.0624
     12 C          -0.2448   -2.1746    8.9530 C.ar    1  UNL1       -0.0612
     13 H          -0.7784   -2.7017    8.1751 H       1  UNL1        0.0618
     14 C           0.3148   -2.8771   10.0069 C.ar    1  UNL1       -0.0617
     15 H           0.2159   -3.9516   10.0555 H       1  UNL1        0.0618
     16 C           1.0036   -2.1976   10.9998 C.ar    1  UNL1       -0.0612
     17 H           1.4429   -2.7431   11.8231 H       1  UNL1        0.0618
     18 C           1.1308   -0.8237   10.9328 C.ar    1  UNL1       -0.0538
     19 H           1.6583   -0.2816   11.7059 H       1  UNL1        0.0624
     20 C           0.3801    2.2170   11.4477 C.ar    1  UNL1       -0.0189
     21 C           0.9995    3.3361   11.9912 C.ar    1  UNL1       -0.0538
     22 H           1.7716    3.8236   11.4151 H       1  UNL1        0.0624
     23 C           0.6045    3.8205   13.2250 C.ar    1  UNL1       -0.0612
     24 H           1.0888    4.6908   13.6430 H       1  UNL1        0.0618
     25 C          -0.4113    3.1881   13.9232 C.ar    1  UNL1       -0.0617
     26 H          -0.7205    3.5623   14.8885 H       1  UNL1        0.0618
     27 C          -1.0355    2.0753   13.3823 C.ar    1  UNL1       -0.0612
     28 H          -1.8318    1.5863   13.9253 H       1  UNL1        0.0618
     29 C          -0.6440    1.5886   12.1480 C.ar    1  UNL1       -0.0538
     30 H          -1.1308    0.7189   11.7280 H       1  UNL1        0.0624
     31 C           2.1900    3.3177    5.6967 C.ar    1  UNL1       -0.0189
     32 C           1.9893    4.6902    5.8227 C.ar    1  UNL1       -0.0538
     33 H           1.5124    5.0736    6.7117 H       1  UNL1        0.0624
     34 C           2.4326    5.5539    4.8390 C.ar    1  UNL1       -0.0612
     35 H           2.2643    6.6159    4.9426 H       1  UNL1        0.0618
     36 C           3.0974    5.0643    3.7263 C.ar    1  UNL1       -0.0617
     37 H           3.4433    5.7396    2.9574 H       1  UNL1        0.0618
     38 C           3.3293    3.7039    3.6093 C.ar    1  UNL1       -0.0612
     39 H           3.8613    3.3173    2.7515 H       1  UNL1        0.0618
     40 C           2.8857    2.8354    4.5904 C.ar    1  UNL1       -0.0538
     41 H           3.0758    1.7757    4.4920 H       1  UNL1        0.0624
     42 C           1.5602    0.6171    6.2287 C.ar    1  UNL1       -0.0189
     43 C           0.8807    0.4658    5.0230 C.ar    1  UNL1       -0.0538
     44 H           0.4702    1.3345    4.5248 H       1  UNL1        0.0624
     45 C           0.7405   -0.7897    4.4619 C.ar    1  UNL1       -0.0612
     46 H           0.2149   -0.9047    3.5245 H       1  UNL1        0.0618
     47 C           1.2713   -1.9023    5.0978 C.ar    1  UNL1       -0.0617
     48 H           1.1595   -2.8803    4.6527 H       1  UNL1        0.0618
     49 C           1.9376   -1.7590    6.3027 C.ar    1  UNL1       -0.0612
     50 H           2.3415   -2.6250    6.8071 H       1  UNL1        0.0618
     51 C           2.0747   -0.5025    6.8652 C.ar    1  UNL1       -0.0538
     52 H           2.5669   -0.3638    7.8152 H       1  UNL1        0.0624
@<TRIPOS>BOND
     1    39    38    1
     2    37    36    1
     3    46    45    1
     4    38    36   ar
     5    38    40   ar
     6    36    34   ar
     7    45    43   ar
     8    45    47   ar
     9    41    40    1
    10    44    43    1
    11    40    31   ar
    12    48    47    1
    13    34    35    1
    14    34    32   ar
    15    43    42   ar
    16    47    49   ar
    17    31    32   ar
    18    31     2    1
    19    32    33    1
    20    42    51   ar
    21    42     2    1
    22    49    50    1
    23    49    51   ar
    24     8     6    1
    25    51    52    1
    26     7     6    1
    27     2     6    1
    28     6     3    1
    29    11    10    1
    30    13    12    1
    31     3     4    1
    32     3     5    1
    33     3     1    1
    34    10    12   ar
    35    10     9   ar
    36    12    14   ar
    37     1     9    1
    38     1    20    1
    39     9    18   ar
    40    14    15    1
    41    14    16   ar
    42    18    16   ar
    43    18    19    1
    44    16    17    1
    45    22    21    1
    46    20    21   ar
    47    20    29   ar
    48    30    29    1
    49    21    23   ar
    50    29    27   ar
    51    23    24    1
    52    23    25   ar
    53    27    25   ar
    54    27    28    1
    55    25    26    1
