@<TRIPOS>MOLECULE
1,2
 52 55 0 0 0
SMALL
GASTEIGER

@<TRIPOS>ATOM
      1 P           8.4466   10.9965    1.0067 P.3     1  UNL1       -0.0435
      2 P          11.3774   11.3496    0.8067 P.3     1  UNL1       -0.0435
      3 C           8.9835   12.6646    0.3961 C.3     1  UNL1       -0.0199
      4 H           8.2499   13.0805   -0.3025 H       1  UNL1        0.0323
      5 H           9.0772   13.3165    1.2668 H       1  UNL1        0.0323
      6 C          10.3476   12.4887   -0.2577 C.3     1  UNL1       -0.0199
      7 H          10.8487   13.4507   -0.3934 H       1  UNL1        0.0323
      8 H          10.2247   12.0211   -1.2385 H       1  UNL1        0.0323
      9 C           7.9344   10.3021   -0.6159 C.ar    1  UNL1       -0.0189
     10 C           8.7838    9.3618   -1.1826 C.ar    1  UNL1       -0.0538
     11 H           9.6572    9.0666   -0.6170 H       1  UNL1        0.0624
     12 C           8.5160    8.8296   -2.4314 C.ar    1  UNL1       -0.0612
     13 H           9.1832    8.0977   -2.8651 H       1  UNL1        0.0618
     14 C           7.3874    9.2386   -3.1221 C.ar    1  UNL1       -0.0617
     15 H           7.1695    8.8259   -4.0962 H       1  UNL1        0.0618
     16 C           6.5354   10.1789   -2.5630 C.ar    1  UNL1       -0.0612
     17 H           5.6568   10.4978   -3.1051 H       1  UNL1        0.0618
     18 C           6.8049   10.7122   -1.3156 C.ar    1  UNL1       -0.0538
     19 H           6.1374   11.4437   -0.8806 H       1  UNL1        0.0624
     20 C           6.8041   11.3248    1.7195 C.ar    1  UNL1       -0.0189
     21 C           5.8852   10.2769    1.7201 C.ar    1  UNL1       -0.0538
     22 H           6.1750    9.3251    1.2954 H       1  UNL1        0.0624
     23 C           4.6119   10.4552    2.2259 C.ar    1  UNL1       -0.0612
     24 H           3.9065    9.6368    2.2223 H       1  UNL1        0.0618
     25 C           4.2374   11.6915    2.7272 C.ar    1  UNL1       -0.0617
     26 H           3.2350   11.8420    3.0998 H       1  UNL1        0.0618
     27 C           5.1513   12.7307    2.7516 C.ar    1  UNL1       -0.0612
     28 H           4.8619   13.6905    3.1526 H       1  UNL1        0.0618
     29 C           6.4349   12.5465    2.2681 C.ar    1  UNL1       -0.0538
     30 H           7.1498   13.3527    2.3181 H       1  UNL1        0.0624
     31 C          12.4866   12.5390    1.6455 C.ar    1  UNL1       -0.0189
     32 C          12.6508   12.4277    3.0191 C.ar    1  UNL1       -0.0538
     33 H          12.0776   11.6809    3.5439 H       1  UNL1        0.0624
     34 C          13.5049   13.2833    3.6922 C.ar    1  UNL1       -0.0612
     35 H          13.6288   13.1933    4.7618 H       1  UNL1        0.0618
     36 C          14.1997   14.2580    2.9960 C.ar    1  UNL1       -0.0617
     37 H          14.8637   14.9306    3.5195 H       1  UNL1        0.0618
     38 C          14.0444   14.3700    1.6230 C.ar    1  UNL1       -0.0612
     39 H          14.5911   15.1266    1.0783 H       1  UNL1        0.0618
     40 C          13.1976   13.5112    0.9476 C.ar    1  UNL1       -0.0538
     41 H          13.1026   13.5847   -0.1280 H       1  UNL1        0.0624
     42 C          12.5692   10.6990   -0.4274 C.ar    1  UNL1       -0.0189
     43 C          13.9175   10.5798   -0.0945 C.ar    1  UNL1       -0.0538
     44 H          14.2678   10.9614    0.8537 H       1  UNL1        0.0624
     45 C          14.8139    9.9939   -0.9692 C.ar    1  UNL1       -0.0612
     46 H          15.8564    9.9163   -0.6961 H       1  UNL1        0.0618
     47 C          14.3790    9.5056   -2.1901 C.ar    1  UNL1       -0.0617
     48 H          15.0788    9.0482   -2.8736 H       1  UNL1        0.0618
     49 C          13.0394    9.6046   -2.5265 C.ar    1  UNL1       -0.0612
     50 H          12.6901    9.2217   -3.4747 H       1  UNL1        0.0618
     51 C          12.1419   10.1873   -1.6501 C.ar    1  UNL1       -0.0538
     52 H          11.0995   10.2411   -1.9266 H       1  UNL1        0.0624
@<TRIPOS>BOND
     1    15    14    1
     2    50    49    1
     3    14    16   ar
     4    14    12   ar
     5    17    16    1
     6    48    47    1
     7    13    12    1
     8    16    18   ar
     9    49    47   ar
    10    49    51   ar
    11    12    10   ar
    12    47    45   ar
    13    52    51    1
    14    51    42   ar
    15    18    19    1
    16    18     9   ar
    17     8     6    1
    18    10    11    1
    19    10     9   ar
    20    45    46    1
    21    45    43   ar
    22     9     1    1
    23    42    43   ar
    24    42     2    1
    25     7     6    1
    26     4     3    1
    27     6     3    1
    28     6     2    1
    29    41    40    1
    30    43    44    1
    31     3     1    1
    32     3     5    1
    33     2    31    1
    34    40    38   ar
    35    40    31   ar
    36     1    20    1
    37    39    38    1
    38    22    21    1
    39    38    36   ar
    40    31    32   ar
    41    20    21   ar
    42    20    29   ar
    43    21    23   ar
    44    24    23    1
    45    23    25   ar
    46    29    30    1
    47    29    27   ar
    48    25    27   ar
    49    25    26    1
    50    27    28    1
    51    36    37    1
    52    36    34   ar
    53    32    33    1
    54    32    34   ar
    55    34    35    1
