@<TRIPOS>MOLECULE
1,2
 52 55 0 0 0
SMALL
GASTEIGER

@<TRIPOS>ATOM
      1 P           6.2134    7.2794    2.3117 P.3     1  UNL1       -0.0435
      2 P           6.3809    6.9820    5.1667 P.3     1  UNL1       -0.0435
      3 C           7.9337    7.6725    2.9249 C.3     1  UNL1       -0.0199
      4 H           8.6398    6.9778    2.4599 H       1  UNL1        0.0323
      5 H           8.1834    8.6820    2.5930 H       1  UNL1        0.0323
      6 C           7.9898    7.5879    4.4526 C.3     1  UNL1       -0.0199
      7 H           8.1120    8.5889    4.8757 H       1  UNL1        0.0323
      8 H           8.8188    6.9680    4.8066 H       1  UNL1        0.0323
      9 C           6.5233    5.5873    1.6765 C.ar    1  UNL1       -0.0189
     10 C           7.4499    5.3155    0.6736 C.ar    1  UNL1       -0.0538
     11 H           7.9810    6.1295    0.1976 H       1  UNL1        0.0624
     12 C           7.6816    4.0100    0.2825 C.ar    1  UNL1       -0.0612
     13 H           8.4000    3.8013   -0.4975 H       1  UNL1        0.0618
     14 C           6.9958    2.9672    0.8878 C.ar    1  UNL1       -0.0617
     15 H           7.1809    1.9495    0.5763 H       1  UNL1        0.0618
     16 C           6.0805    3.2312    1.8921 C.ar    1  UNL1       -0.0612
     17 H           5.5527    2.4206    2.3738 H       1  UNL1        0.0618
     18 C           5.8520    4.5378    2.2856 C.ar    1  UNL1       -0.0538
     19 H           5.1626    4.7713    3.0819 H       1  UNL1        0.0624
     20 C           6.1041    8.2165    0.7541 C.ar    1  UNL1       -0.0189
     21 C           5.6313    7.6219   -0.4139 C.ar    1  UNL1       -0.0538
     22 H           5.4074    6.5643   -0.4274 H       1  UNL1        0.0624
     23 C           5.4565    8.3729   -1.5621 C.ar    1  UNL1       -0.0612
     24 H           5.0940    7.8992   -2.4634 H       1  UNL1        0.0618
     25 C           5.7436    9.7277   -1.5575 C.ar    1  UNL1       -0.0617
     26 H           5.6114   10.3121   -2.4562 H       1  UNL1        0.0618
     27 C           6.1891   10.3308   -0.3926 C.ar    1  UNL1       -0.0612
     28 H           6.4010   11.3893   -0.3823 H       1  UNL1        0.0618
     29 C           6.3564    9.5859    0.7599 C.ar    1  UNL1       -0.0538
     30 H           6.6562   10.0646    1.6797 H       1  UNL1        0.0624
     31 C           6.5511    7.6572    6.8531 C.ar    1  UNL1       -0.0189
     32 C           5.8789    8.8436    7.1233 C.ar    1  UNL1       -0.0538
     33 H           5.2950    9.2912    6.3323 H       1  UNL1        0.0624
     34 C           5.9875    9.4374    8.3675 C.ar    1  UNL1       -0.0612
     35 H           5.4658   10.3607    8.5732 H       1  UNL1        0.0618
     36 C           6.7669    8.8477    9.3496 C.ar    1  UNL1       -0.0617
     37 H           6.8517    9.3075   10.3236 H       1  UNL1        0.0618
     38 C           7.4435    7.6684    9.0821 C.ar    1  UNL1       -0.0612
     39 H           8.0563    7.2127    9.8468 H       1  UNL1        0.0618
     40 C           7.3394    7.0720    7.8381 C.ar    1  UNL1       -0.0538
     41 H           7.8676    6.1512    7.6320 H       1  UNL1        0.0624
     42 C           6.6976    5.2105    5.4784 C.ar    1  UNL1       -0.0189
     43 C           7.5868    4.4485    4.7285 C.ar    1  UNL1       -0.0538
     44 H           8.2070    4.9184    3.9792 H       1  UNL1        0.0624
     45 C           7.6839    3.0839    4.9345 C.ar    1  UNL1       -0.0612
     46 H           8.3829    2.5028    4.3501 H       1  UNL1        0.0618
     47 C           6.8855    2.4612    5.8789 C.ar    1  UNL1       -0.0617
     48 H           6.9621    1.3953    6.0358 H       1  UNL1        0.0618
     49 C           5.9862    3.2096    6.6227 C.ar    1  UNL1       -0.0612
     50 H           5.3603    2.7266    7.3597 H       1  UNL1        0.0618
     51 C           5.8894    4.5723    6.4176 C.ar    1  UNL1       -0.0538
     52 H           5.1998    5.1688    6.9995 H       1  UNL1        0.0624
@<TRIPOS>BOND
     1    24    23    1
     2    26    25    1
     3    23    25   ar
     4    23    21   ar
     5    25    27   ar
     6    13    12    1
     7    22    21    1
     8    21    20   ar
     9    27    28    1
    10    27    29   ar
    11    11    10    1
    12    12    10   ar
    13    12    14   ar
    14    15    14    1
    15    10     9   ar
    16    20    29   ar
    17    20     1    1
    18    29    30    1
    19    14    16   ar
    20     9    18   ar
    21     9     1    1
    22    16    18   ar
    23    16    17    1
    24    18    19    1
    25     1     3    1
    26     4     3    1
    27     5     3    1
    28     3     6    1
    29    44    43    1
    30    46    45    1
    31     6     8    1
    32     6     7    1
    33     6     2    1
    34    43    45   ar
    35    43    42   ar
    36    45    47   ar
    37     2    42    1
    38     2    31    1
    39    42    51   ar
    40    47    48    1
    41    47    49   ar
    42    33    32    1
    43    51    49   ar
    44    51    52    1
    45    49    50    1
    46    31    32   ar
    47    31    40   ar
    48    32    34   ar
    49    41    40    1
    50    40    38   ar
    51    34    35    1
    52    34    36   ar
    53    38    36   ar
    54    38    39    1
    55    36    37    1
