@<TRIPOS>MOLECULE
2,3
 53 52 0 0 0
SMALL
GASTEIGER

@<TRIPOS>ATOM
      1 SE          2.9166    9.3651    4.5187 Se      1  UNL1        0.0000
      2 P           1.6098    7.9586    3.3222 P.3     1  UNL1        0.0000
      3 P           1.6567   10.9204    3.4851 P.3     1  UNL1        0.0000
      4 SI          0.8811    5.2489    2.4403 Si      1  UNL1        0.0000
      5 SI          3.3721    5.5897    4.6223 Si      1  UNL1        0.0000
      6 C           2.0447    6.3533    3.4920 C.3     1  UNL1        0.0000
      7 C           0.7427    6.0005    0.6936 C.3     1  UNL1        0.0000
      8 H           1.7167    6.0626    0.2156 H       1  UNL1        0.0000
      9 H           0.3262    7.0046    0.7250 H       1  UNL1        0.0000
     10 H           0.1018    5.4000    0.0554 H       1  UNL1        0.0000
     11 C          -0.7954    5.2106    3.3496 C.3     1  UNL1        0.0000
     12 H          -1.0504    6.1963    3.7339 H       1  UNL1        0.0000
     13 H          -0.7724    4.5267    4.1929 H       1  UNL1        0.0000
     14 H          -1.5989    4.8956    2.6913 H       1  UNL1        0.0000
     15 C           1.5125    3.4693    2.1978 C.3     1  UNL1        0.0000
     16 H           2.3581    3.4367    1.5202 H       1  UNL1        0.0000
     17 H           0.7242    2.8654    1.7609 H       1  UNL1        0.0000
     18 H           1.8091    2.9968    3.1258 H       1  UNL1        0.0000
     19 C           2.4544    4.3842    5.7850 C.3     1  UNL1        0.0000
     20 H           3.1600    3.8049    6.3721 H       1  UNL1        0.0000
     21 H           1.8297    3.6873    5.2385 H       1  UNL1        0.0000
     22 H           1.8138    4.9213    6.4780 H       1  UNL1        0.0000
     23 C           4.6508    4.7060    3.5146 C.3     1  UNL1        0.0000
     24 H           5.4722    4.3242    4.1127 H       1  UNL1        0.0000
     25 H           5.0698    5.3818    2.7753 H       1  UNL1        0.0000
     26 H           4.2135    3.8685    2.9849 H       1  UNL1        0.0000
     27 C           4.3525    6.7679    5.7553 C.3     1  UNL1        0.0000
     28 H           5.0203    6.1989    6.3955 H       1  UNL1        0.0000
     29 H           3.6968    7.3477    6.3998 H       1  UNL1        0.0000
     30 H           4.9591    7.4686    5.1873 H       1  UNL1        0.0000
     31 C           2.9183   11.7042    2.3111 C.3     1  UNL1        0.0000
     32 C           4.0078   12.4652    3.0620 C.3     1  UNL1        0.0000
     33 H           4.4486   11.8338    3.8371 H       1  UNL1        0.0000
     34 H           3.6255   13.3731    3.5221 H       1  UNL1        0.0000
     35 H           4.7992   12.7485    2.3695 H       1  UNL1        0.0000
     36 C           3.5660   10.5723    1.5089 C.3     1  UNL1        0.0000
     37 H           4.2499    9.9915    2.1291 H       1  UNL1        0.0000
     38 H           4.1373   10.9852    0.6790 H       1  UNL1        0.0000
     39 H           2.8130    9.8979    1.0942 H       1  UNL1        0.0000
     40 C           2.1591   12.6152    1.3462 C.3     1  UNL1        0.0000
     41 H           1.7503   13.4880    1.8468 H       1  UNL1        0.0000
     42 H           1.3343   12.0759    0.8780 H       1  UNL1        0.0000
     43 H           2.8283   12.9614    0.5595 H       1  UNL1        0.0000
     44 C           1.4406   12.1484    4.8774 C.3     1  UNL1        0.0000
     45 H           2.4337   12.3713    5.2896 H       1  UNL1        0.0000
     46 C           0.7550   13.4227    4.3938 C.3     1  UNL1        0.0000
     47 H           1.4297   14.0648    3.8337 H       1  UNL1        0.0000
     48 H           0.3911   13.9918    5.2482 H       1  UNL1        0.0000
     49 H          -0.1005   13.1740    3.7639 H       1  UNL1        0.0000
     50 C           0.5888   11.5047    5.9665 C.3     1  UNL1        0.0000
     51 H           0.9834   10.5307    6.2642 H       1  UNL1        0.0000
     52 H          -0.4363   11.3814    5.6167 H       1  UNL1        0.0000
     53 H           0.5705   12.1400    6.8505 H       1  UNL1        0.0000
@<TRIPOS>BOND
     1    10     7    1
     2     8     7    1
     3    43    40    1
     4    38    36    1
     5     7     9    1
     6     7     4    1
     7    42    40    1
     8    39    36    1
     9    40    41    1
    10    40    31    1
    11    36    37    1
    12    36    31    1
    13    16    15    1
    14    17    15    1
    15    15     4    1
    16    15    18    1
    17    31    32    1
    18    31     3    1
    19    35    32    1
    20     4    11    1
    21     4     6    1
    22    14    11    1
    23    25    23    1
    24    26    23    1
    25    32    34    1
    26    32    33    1
    27     2     6    1
    28     2     1    1
    29    11    12    1
    30    11    13    1
    31     3     1    1
    32     3    44    1
    33     6     5    1
    34    23    24    1
    35    23     5    1
    36    49    46    1
    37    47    46    1
    38    46    44    1
    39    46    48    1
    40     5    27    1
    41     5    19    1
    42    44    45    1
    43    44    50    1
    44    30    27    1
    45    21    19    1
    46    52    50    1
    47    27    28    1
    48    27    29    1
    49    19    20    1
    50    19    22    1
    51    50    51    1
    52    50    53    1
