@<TRIPOS>MOLECULE
1,30
 52 55 0 0 0
SMALL
GASTEIGER

@<TRIPOS>ATOM
      1 P           6.5746   17.1486    4.5106 P.3     1  UNL1       -0.0435
      2 C           8.2507   17.8774    4.5712 C.ar    1  UNL1       -0.0189
      3 C           8.6689   18.6916    5.6190 C.ar    1  UNL1       -0.0538
      4 H           7.9735   18.9515    6.4059 H       1  UNL1        0.0624
      5 C           9.9655   19.1707    5.6427 C.ar    1  UNL1       -0.0612
      6 H          10.2902   19.8042    6.4554 H       1  UNL1        0.0618
      7 C          10.8515   18.8407    4.6279 C.ar    1  UNL1       -0.0617
      8 H          11.8631   19.2188    4.6523 H       1  UNL1        0.0618
      9 C          10.4406   18.0282    3.5845 C.ar    1  UNL1       -0.0612
     10 H          11.1310   17.7689    2.7940 H       1  UNL1        0.0618
     11 C           9.1424   17.5501    3.5592 C.ar    1  UNL1       -0.0538
     12 H           8.7969   16.9072    2.7578 H       1  UNL1        0.0624
     13 C           5.5752   18.5146    5.1692 C.ar    1  UNL1       -0.0189
     14 C           4.5256   18.3217    6.0613 C.ar    1  UNL1       -0.0538
     15 H           4.3353   17.3418    6.4706 H       1  UNL1        0.0624
     16 C           3.7165   19.3857    6.4183 C.ar    1  UNL1       -0.0612
     17 H           2.9037   19.2289    7.1121 H       1  UNL1        0.0618
     18 C           3.9384   20.6445    5.8852 C.ar    1  UNL1       -0.0617
     19 H           3.3014   21.4709    6.1640 H       1  UNL1        0.0618
     20 C           4.9769   20.8422    4.9889 C.ar    1  UNL1       -0.0612
     21 H           5.1510   21.8228    4.5687 H       1  UNL1        0.0618
     22 C           5.7864   19.7823    4.6290 C.ar    1  UNL1       -0.0538
     23 H           6.6023   19.9288    3.9320 H       1  UNL1        0.0624
     24 C           6.7281   15.9505    5.9183 C.3     1  UNL1       -0.0199
     25 H           7.2029   16.4254    6.7831 H       1  UNL1        0.0323
     26 H           5.7159   15.6275    6.1812 H       1  UNL1        0.0323
     27 C           7.5325   14.7566    5.4150 C.3     1  UNL1       -0.0199
     28 H           7.4587   13.9120    6.1059 H       1  UNL1        0.0323
     29 H           8.5847   15.0399    5.3172 H       1  UNL1        0.0323
     30 P           6.8971   14.2623    3.7273 P.3     1  UNL1       -0.0435
     31 C           8.3613   13.4930    2.9478 C.ar    1  UNL1       -0.0189
     32 C           9.6265   14.0706    3.0064 C.ar    1  UNL1       -0.0538
     33 H           9.7976   14.9481    3.6133 H       1  UNL1        0.0624
     34 C          10.6789   13.5308    2.2889 C.ar    1  UNL1       -0.0612
     35 H          11.6578   13.9844    2.3513 H       1  UNL1        0.0618
     36 C          10.4811   12.4180    1.4883 C.ar    1  UNL1       -0.0617
     37 H          11.3032   12.0012    0.9256 H       1  UNL1        0.0618
     38 C           9.2218   11.8458    1.4090 C.ar    1  UNL1       -0.0612
     39 H           9.0588   10.9810    0.7820 H       1  UNL1        0.0618
     40 C           8.1698   12.3810    2.1288 C.ar    1  UNL1       -0.0538
     41 H           7.1883   11.9304    2.0684 H       1  UNL1        0.0624
     42 C           5.9560   12.7454    4.1280 C.ar    1  UNL1       -0.0189
     43 C           4.6555   12.6172    3.6593 C.ar    1  UNL1       -0.0538
     44 H           4.2269   13.4298    3.0863 H       1  UNL1        0.0624
     45 C           3.9199   11.4796    3.9417 C.ar    1  UNL1       -0.0612
     46 H           2.9048   11.3902    3.5833 H       1  UNL1        0.0618
     47 C           4.4858   10.4593    4.6868 C.ar    1  UNL1       -0.0617
     48 H           3.9131    9.5717    4.9123 H       1  UNL1        0.0618
     49 C           5.7914   10.5726    5.1402 C.ar    1  UNL1       -0.0612
     50 H           6.2356    9.7704    5.7119 H       1  UNL1        0.0618
     51 C           6.5275   11.7082    4.8608 C.ar    1  UNL1       -0.0538
     52 H           7.5534   11.7869    5.1972 H       1  UNL1        0.0624
@<TRIPOS>BOND
     1    39    38    1
     2    37    36    1
     3    38    36   ar
     4    38    40   ar
     5    36    34   ar
     6    41    40    1
     7    40    31   ar
     8    34    35    1
     9    34    32   ar
    10    12    11    1
    11    10     9    1
    12    31    32   ar
    13    31    30    1
    14    32    33    1
    15    44    43    1
    16    11     9   ar
    17    11     2   ar
    18    46    45    1
    19     9     7   ar
    20    43    45   ar
    21    43    42   ar
    22    30    42    1
    23    30    27    1
    24    23    22    1
    25    45    47   ar
    26    42    51   ar
    27     1     2    1
    28     1    13    1
    29     1    24    1
    30    21    20    1
    31     2     3   ar
    32     7     8    1
    33     7     5   ar
    34    22    20   ar
    35    22    13   ar
    36    47    48    1
    37    47    49   ar
    38    51    49   ar
    39    51    52    1
    40    20    18   ar
    41    49    50    1
    42    13    14   ar
    43    29    27    1
    44    27    24    1
    45    27    28    1
    46     3     5   ar
    47     3     4    1
    48     5     6    1
    49    18    19    1
    50    18    16   ar
    51    24    26    1
    52    24    25    1
    53    14    16   ar
    54    14    15    1
    55    16    17    1
