@<TRIPOS>MOLECULE
1,2
 95 97 0 0 0
SMALL
GASTEIGER

@<TRIPOS>ATOM
      1 P           7.0569    9.3674   20.7476 P.3     1  UNL1        0.0000
      2 P           8.5581    7.1618   23.1887 P.3     1  UNL1        0.0000
      3 P           4.9774    5.1095   25.1793 P.3     1  UNL1        0.0000
      4 C           8.0062    8.7327   19.2425 C.3     1  UNL1        0.0000
      5 H           9.0511    8.8759   19.5505 H       1  UNL1        0.0000
      6 C           4.7095    7.9890   21.4845 C.ar    1  UNL1        0.0000
      7 C           3.3826    7.6190   21.2503 C.ar    1  UNL1        0.0000
      8 H           2.8439    7.1006   22.0327 H       1  UNL1        0.0000
      9 C           2.7282    7.9077   20.0701 C.ar    1  UNL1        0.0000
     10 H           1.7005    7.6029   19.9265 H       1  UNL1        0.0000
     11 C           5.3594    8.7105   20.4770 C.ar    1  UNL1        0.0000
     12 C           4.1140    6.7414   25.1254 C.ar    1  UNL1        0.0000
     13 C           4.4112    7.6453   24.0919 C.ar    1  UNL1        0.0000
     14 C           8.0150    4.6391   22.0139 C.ar    1  UNL1        0.0000
     15 H           9.0747    4.4388   22.0580 H       1  UNL1        0.0000
     16 C           6.1044    6.0737   22.4515 C.ar    1  UNL1        0.0000
     17 C           3.1910    7.0933   26.1116 C.ar    1  UNL1        0.0000
     18 H           2.9598    6.4067   26.9118 H       1  UNL1        0.0000
     19 C           7.4904    5.8348   22.5011 C.ar    1  UNL1        0.0000
     20 C           5.3182    5.0920   21.8475 C.ar    1  UNL1        0.0000
     21 H           4.2600    5.2740   21.7340 H       1  UNL1        0.0000
     22 C           6.6900   11.1636   20.3154 C.3     1  UNL1        0.0000
     23 H           6.2212   11.2024   19.3266 H       1  UNL1        0.0000
     24 C           4.6980    9.0015   19.2834 C.ar    1  UNL1        0.0000
     25 H           5.1930    9.5620   18.5056 H       1  UNL1        0.0000
     26 C           5.8406    3.9139   21.3512 C.ar    1  UNL1        0.0000
     27 H           5.1936    3.1863   20.8808 H       1  UNL1        0.0000
     28 C           7.2000    3.6778   21.4475 C.ar    1  UNL1        0.0000
     29 H           7.6281    2.7587   21.0720 H       1  UNL1        0.0000
     30 C           3.3965    8.5942   19.0702 C.ar    1  UNL1        0.0000
     31 H           2.9021    8.8248   18.1366 H       1  UNL1        0.0000
     32 C           2.5526    8.3172   26.1068 C.ar    1  UNL1        0.0000
     33 H           1.8338    8.5575   26.8786 H       1  UNL1        0.0000
     34 C           7.7322    7.2337   19.1492 C.3     1  UNL1        0.0000
     35 H           7.7870    6.7775   20.1371 H       1  UNL1        0.0000
     36 H           8.4526    6.7462   18.4935 H       1  UNL1        0.0000
     37 H           6.7329    7.0537   18.7569 H       1  UNL1        0.0000
     38 C           3.7647    8.8872   24.1362 C.ar    1  UNL1        0.0000
     39 H           3.9906    9.6074   23.3589 H       1  UNL1        0.0000
     40 C           5.7105   11.7020   21.3532 C.3     1  UNL1        0.0000
     41 H           4.7782   11.1395   21.3328 H       1  UNL1        0.0000
     42 H           5.4844   12.7504   21.1607 H       1  UNL1        0.0000
     43 H           6.1513   11.6169   22.3484 H       1  UNL1        0.0000
     44 C           2.8493    9.2296   25.1095 C.ar    1  UNL1        0.0000
     45 H           2.3664   10.1973   25.0938 H       1  UNL1        0.0000
     46 C          11.2964    7.3387   23.7249 C.3     1  UNL1        0.0000
     47 H          11.0493    8.3976   23.7178 H       1  UNL1        0.0000
     48 H          12.3101    7.2087   23.3455 H       1  UNL1        0.0000
     49 H          11.2855    6.9852   24.7516 H       1  UNL1        0.0000
     50 C           7.8341    9.3823   17.8708 C.3     1  UNL1        0.0000
     51 H           6.8793    9.1196   17.4244 H       1  UNL1        0.0000
     52 H           8.6153    9.0091   17.2078 H       1  UNL1        0.0000
     53 H           7.9189   10.4649   17.9077 H       1  UNL1        0.0000
     54 C           8.8078    7.7630   25.9810 C.3     1  UNL1        0.0000
     55 H           9.8799    7.6776   26.1357 H       1  UNL1        0.0000
     56 H           8.3230    7.6392   26.9484 H       1  UNL1        0.0000
     57 H           8.5928    8.7634   25.6105 H       1  UNL1        0.0000
     58 C           4.9482    4.7290   27.0361 C.3     1  UNL1        0.0000
     59 H           3.9218    4.6691   27.4098 H       1  UNL1        0.0000
     60 C           8.2920    6.7142   25.0014 C.3     1  UNL1        0.0000
     61 H           7.1920    6.7089   25.0603 H       1  UNL1        0.0000
     62 C          10.6142    6.7883   21.3818 C.3     1  UNL1        0.0000
     63 H           9.9728    6.1789   20.7504 H       1  UNL1        0.0000
     64 H          11.6520    6.5369   21.1602 H       1  UNL1        0.0000
     65 H          10.4396    7.8337   21.1355 H       1  UNL1        0.0000
     66 C          10.3065    6.5670   22.8585 C.3     1  UNL1        0.0000
     67 H          10.3909    5.5026   23.0968 H       1  UNL1        0.0000
     68 C           7.9560   12.0056   20.3157 C.3     1  UNL1        0.0000
     69 H           8.4091   11.9537   21.3023 H       1  UNL1        0.0000
     70 H           7.7252   13.0461   20.0865 H       1  UNL1        0.0000
     71 H           8.6772   11.6439   19.5862 H       1  UNL1        0.0000
     72 C           3.5554    4.0420   24.5195 C.3     1  UNL1        0.0000
     73 H           3.2721    4.5816   23.6074 H       1  UNL1        0.0000
     74 C           5.6916    5.8195   27.8024 C.3     1  UNL1        0.0000
     75 H           6.7305    5.8620   27.4850 H       1  UNL1        0.0000
     76 H           5.6711    5.6086   28.8723 H       1  UNL1        0.0000
     77 H           5.2441    6.7967   27.6374 H       1  UNL1        0.0000
     78 C           8.7837    5.3153   25.3585 C.3     1  UNL1        0.0000
     79 H           8.3679    4.5782   24.6747 H       1  UNL1        0.0000
     80 H           8.4612    5.0583   26.3667 H       1  UNL1        0.0000
     81 H           9.8692    5.2501   25.3356 H       1  UNL1        0.0000
     82 B           5.4203    7.4792   22.8395 B       1  UNL1        0.0000
     83 H           6.3544    8.3099   23.1025 H       1  UNL1        0.0000
     84 C           2.3077    3.8984   25.3824 C.3     1  UNL1        0.0000
     85 H           2.5144    3.3390   26.2929 H       1  UNL1        0.0000
     86 H           1.5479    3.3514   24.8236 H       1  UNL1        0.0000
     87 H           1.8942    4.8693   25.6448 H       1  UNL1        0.0000
     88 C           5.6270    3.3819   27.2722 C.3     1  UNL1        0.0000
     89 H           5.0334    2.5646   26.8715 H       1  UNL1        0.0000
     90 H           5.7620    3.2078   28.3402 H       1  UNL1        0.0000
     91 H           6.6044    3.3576   26.7935 H       1  UNL1        0.0000
     92 C           4.0842    2.6712   24.1032 C.3     1  UNL1        0.0000
     93 H           5.0192    2.7756   23.5567 H       1  UNL1        0.0000
     94 H           3.3626    2.1669   23.4607 H       1  UNL1        0.0000
     95 H           4.2606    2.0366   24.9685 H       1  UNL1        0.0000
@<TRIPOS>BOND
     1    52    50    1
     2    51    50    1
     3    50    53    1
     4    50     4    1
     5    31    30    1
     6    36    34    1
     7    25    24    1
     8    37    34    1
     9    30    24   ar
    10    30     9   ar
    11    34     4    1
    12    34    35    1
    13     4     5    1
    14     4     1    1
    15    24    11   ar
    16    23    22    1
    17    71    68    1
    18    10     9    1
    19     9     7   ar
    20    70    68    1
    21    22    68    1
    22    22     1    1
    23    22    40    1
    24    68    69    1
    25    11     1    1
    26    11     6   ar
    27    63    62    1
    28    27    26    1
    29    29    28    1
    30    65    62    1
    31    64    62    1
    32    42    40    1
    33     7     6   ar
    34     7     8    1
    35    41    40    1
    36    26    28   ar
    37    26    20   ar
    38    40    43    1
    39    62    66    1
    40    28    14   ar
    41     6    82    1
    42    21    20    1
    43    20    16   ar
    44    14    15    1
    45    14    19   ar
    46    16    19   ar
    47    16    82    1
    48    19     2    1
    49    82    83    1
    50    82    13    1
    51    66    67    1
    52    66     2    1
    53    66    46    1
    54     2    60    1
    55    48    46    1
    56    39    38    1
    57    94    92    1
    58    93    92    1
    59    73    72    1
    60    47    46    1
    61    46    49    1
    62    13    38   ar
    63    13    12   ar
    64    92    72    1
    65    92    95    1
    66    38    44   ar
    67    72     3    1
    68    72    84    1
    69    79    78    1
    70    86    84    1
    71    60    61    1
    72    60    78    1
    73    60    54    1
    74    45    44    1
    75    44    32   ar
    76    12     3    1
    77    12    17   ar
    78     3    58    1
    79    81    78    1
    80    78    80    1
    81    84    87    1
    82    84    85    1
    83    57    54    1
    84    54    55    1
    85    54    56    1
    86    32    17   ar
    87    32    33    1
    88    17    18    1
    89    91    88    1
    90    89    88    1
    91    58    88    1
    92    58    59    1
    93    58    74    1
    94    88    90    1
    95    75    74    1
    96    77    74    1
    97    74    76    1
