@<TRIPOS>MOLECULE
1,31
 60 59 0 0 0
SMALL
GASTEIGER

@<TRIPOS>ATOM
      1 P           2.0053    2.9543    6.3549 P.3     1  UNL1       -0.0945
      2 C           2.2576    2.4536    4.5279 C.3     1  UNL1       -0.0168
      3 C           3.3236    1.4006    4.2309 C.3     1  UNL1       -0.0561
      4 H           4.2488    1.5773    4.7733 H       1  UNL1        0.0238
      5 H           3.5533    1.4285    3.1657 H       1  UNL1        0.0238
      6 H           2.9718    0.3999    4.4591 H       1  UNL1        0.0238
      7 C           2.6512    3.7488    3.8184 C.3     1  UNL1       -0.0561
      8 H           1.9769    4.5433    4.1242 H       1  UNL1        0.0238
      9 H           2.5785    3.6280    2.7383 H       1  UNL1        0.0238
     10 H           3.6752    4.0296    4.0521 H       1  UNL1        0.0238
     11 C           0.9099    1.9935    3.9747 C.3     1  UNL1       -0.0561
     12 H           0.8747    2.1342    2.8954 H       1  UNL1        0.0238
     13 H           0.1102    2.5686    4.4309 H       1  UNL1        0.0238
     14 H           0.7356    0.9403    4.1709 H       1  UNL1        0.0238
     15 C           1.8812    1.3533    7.3787 C.3     1  UNL1       -0.0168
     16 C           0.5640    0.6799    6.9956 C.3     1  UNL1       -0.0561
     17 H           0.6469    0.1503    6.0519 H       1  UNL1        0.0238
     18 H          -0.2225    1.4318    6.9184 H       1  UNL1        0.0238
     19 H           0.2783   -0.0452    7.7562 H       1  UNL1        0.0238
     20 C           3.0513    0.3751    7.2826 C.3     1  UNL1       -0.0561
     21 H           3.0269   -0.2058    6.3678 H       1  UNL1        0.0238
     22 H           2.9881   -0.3261    8.1145 H       1  UNL1        0.0238
     23 H           4.0098    0.8840    7.3490 H       1  UNL1        0.0238
     24 C           1.7575    1.8103    8.8305 C.3     1  UNL1       -0.0561
     25 H           2.7113    2.1400    9.2364 H       1  UNL1        0.0238
     26 H           1.4038    0.9901    9.4533 H       1  UNL1        0.0238
     27 H           1.0287    2.6158    8.8774 H       1  UNL1        0.0238
     28 C           3.7153    3.5798    6.8229 C.3     1  UNL1       -0.0274
     29 H           3.8807    3.2621    7.8518 H       1  UNL1        0.0317
     30 H           4.4729    3.0947    6.2036 H       1  UNL1        0.0317
     31 P           2.2673    5.9788    7.1088 P.3     1  UNL1       -0.0945
     32 C           2.4218    6.4493    8.9505 C.3     1  UNL1       -0.0168
     33 C           3.4014    7.5498    9.3444 C.3     1  UNL1       -0.0561
     34 H           4.3940    7.3603    8.9413 H       1  UNL1        0.0238
     35 H           3.4834    7.5755   10.4314 H       1  UNL1        0.0238
     36 H           3.0658    8.5313    9.0221 H       1  UNL1        0.0238
     37 C           2.8316    5.1642    9.6700 C.3     1  UNL1       -0.0561
     38 H           2.2055    4.3463    9.3235 H       1  UNL1        0.0238
     39 H           2.6949    5.2756   10.7453 H       1  UNL1        0.0238
     40 H           3.8769    4.9220    9.4930 H       1  UNL1        0.0238
     41 C           1.0020    6.7988    9.4055 C.3     1  UNL1       -0.0561
     42 H           0.9324    6.7764   10.4928 H       1  UNL1        0.0238
     43 H           0.2977    6.0634    9.0005 H       1  UNL1        0.0238
     44 H           0.6967    7.7872    9.0738 H       1  UNL1        0.0238
     45 C           2.4604    7.5866    6.0953 C.3     1  UNL1       -0.0168
     46 C           1.3429    8.5389    6.5227 C.3     1  UNL1       -0.0561
     47 H           1.5446    8.9930    7.4889 H       1  UNL1        0.0238
     48 H           0.3951    7.9996    6.5747 H       1  UNL1        0.0238
     49 H           1.2346    9.3438    5.7961 H       1  UNL1        0.0238
     50 C           3.8201    8.2808    6.1654 C.3     1  UNL1       -0.0561
     51 H           4.0041    8.7375    7.1303 H       1  UNL1        0.0238
     52 H           3.8487    9.0727    5.4167 H       1  UNL1        0.0238
     53 H           4.6315    7.5909    5.9477 H       1  UNL1        0.0238
     54 C           2.1991    7.2123    4.6345 C.3     1  UNL1       -0.0561
     55 H           2.9893    6.5843    4.2321 H       1  UNL1        0.0238
     56 H           2.1487    8.1135    4.0239 H       1  UNL1        0.0238
     57 H           1.2470    6.6929    4.5433 H       1  UNL1        0.0238
     58 C           3.8662    5.0985    6.7292 C.3     1  UNL1       -0.0274
     59 H           4.1312    5.3754    5.7083 H       1  UNL1        0.0317
     60 H           4.6682    5.4465    7.3852 H       1  UNL1        0.0317
@<TRIPOS>BOND
     1     9     7    1
     2    12    11    1
     3     5     3    1
     4     7    10    1
     5     7     8    1
     6     7     2    1
     7    11    14    1
     8    11    13    1
     9    11     2    1
    10    56    54    1
    11     3     6    1
    12     3     2    1
    13     3     4    1
    14    55    54    1
    15     2     1    1
    16    57    54    1
    17    54    45    1
    18    52    50    1
    19    59    58    1
    20    49    46    1
    21    53    50    1
    22    17    16    1
    23    45    50    1
    24    45    46    1
    25    45    31    1
    26    50    51    1
    27    30    28    1
    28     1    28    1
    29     1    15    1
    30    21    20    1
    31    46    48    1
    32    46    47    1
    33    58    28    1
    34    58    31    1
    35    58    60    1
    36    28    29    1
    37    18    16    1
    38    16    15    1
    39    16    19    1
    40    31    32    1
    41    20    23    1
    42    20    15    1
    43    20    22    1
    44    15    24    1
    45    24    27    1
    46    24    25    1
    47    24    26    1
    48    34    33    1
    49    32    33    1
    50    32    41    1
    51    32    37    1
    52    43    41    1
    53    36    33    1
    54    44    41    1
    55    38    37    1
    56    33    35    1
    57    41    42    1
    58    40    37    1
    59    37    39    1
