@<TRIPOS>MOLECULE
1,3
 84 84 0 0 0
SMALL
GASTEIGER

@<TRIPOS>ATOM
      1 P           2.0987    6.6807    2.9301 P.3     1  UNL1        0.0000
      2 P           3.7781    8.2665    5.1497 P.3     1  UNL1        0.0000
      3 P           4.5825    8.3738    2.0937 P.3     1  UNL1        0.0000
      4 B           4.8403    5.9562    3.6933 B       1  UNL1        0.0000
      5 C           1.9063    6.0659    1.1605 C.3     1  UNL1        0.0000
      6 H           2.9579    5.9977    0.8565 H       1  UNL1        0.0000
      7 C           1.2056    7.0309    0.2091 C.3     1  UNL1        0.0000
      8 H           1.4916    6.8158   -0.8204 H       1  UNL1        0.0000
      9 H           1.4788    8.0581    0.4368 H       1  UNL1        0.0000
     10 H           0.1249    6.9445    0.2778 H       1  UNL1        0.0000
     11 C           1.3008    4.6722    1.0021 C.3     1  UNL1        0.0000
     12 H           0.2175    4.7035    1.0886 H       1  UNL1        0.0000
     13 H           1.6909    3.9680    1.7323 H       1  UNL1        0.0000
     14 H           1.5388    4.2891    0.0094 H       1  UNL1        0.0000
     15 C           0.4286    6.3568    3.7394 C.3     1  UNL1        0.0000
     16 H           0.5343    6.8808    4.6967 H       1  UNL1        0.0000
     17 C           0.0475    4.9128    4.0523 C.3     1  UNL1        0.0000
     18 H          -0.7775    4.9061    4.7652 H       1  UNL1        0.0000
     19 H           0.8789    4.3716    4.4980 H       1  UNL1        0.0000
     20 H          -0.2768    4.3755    3.1672 H       1  UNL1        0.0000
     21 C          -0.6711    7.0766    2.9657 C.3     1  UNL1        0.0000
     22 H          -0.9929    6.4937    2.1070 H       1  UNL1        0.0000
     23 H          -0.3024    8.0431    2.6199 H       1  UNL1        0.0000
     24 H          -1.5429    7.2365    3.6009 H       1  UNL1        0.0000
     25 C           3.2646    5.4604    3.6094 C.3     1  UNL1        0.0000
     26 H           2.9154    5.1882    4.6088 H       1  UNL1        0.0000
     27 H           3.1887    4.5675    2.9834 H       1  UNL1        0.0000
     28 C           4.5141    9.6021    6.2846 C.3     1  UNL1        0.0000
     29 H           4.0721    9.3961    7.2651 H       1  UNL1        0.0000
     30 C           6.0282    9.5669    6.4773 C.3     1  UNL1        0.0000
     31 H           6.5658    9.8468    5.5745 H       1  UNL1        0.0000
     32 H           6.3626    8.5808    6.7898 H       1  UNL1        0.0000
     33 H           6.3043   10.2779    7.2570 H       1  UNL1        0.0000
     34 C           4.0531   10.9939    5.8692 C.3     1  UNL1        0.0000
     35 H           4.3800   11.7342    6.5998 H       1  UNL1        0.0000
     36 H           2.9678   11.0260    5.8038 H       1  UNL1        0.0000
     37 H           4.4600   11.2688    4.8984 H       1  UNL1        0.0000
     38 C           2.6470    7.4660    6.4180 C.3     1  UNL1        0.0000
     39 H           2.1258    6.6958    5.8428 H       1  UNL1        0.0000
     40 C           1.6003    8.4536    6.9311 C.3     1  UNL1        0.0000
     41 H           0.7846    7.9192    7.4181 H       1  UNL1        0.0000
     42 H           1.1857    9.0355    6.1101 H       1  UNL1        0.0000
     43 H           2.0205    9.1452    7.6585 H       1  UNL1        0.0000
     44 C           3.3407    6.7722    7.5893 C.3     1  UNL1        0.0000
     45 H           4.0616    7.4227    8.0814 H       1  UNL1        0.0000
     46 H           3.8527    5.8687    7.2685 H       1  UNL1        0.0000
     47 H           2.5933    6.4838    8.3284 H       1  UNL1        0.0000
     48 C           5.0860    7.0297    4.9308 C.3     1  UNL1        0.0000
     49 H           5.9985    7.5855    4.7075 H       1  UNL1        0.0000
     50 H           5.2547    6.5267    5.8855 H       1  UNL1        0.0000
     51 C           4.5063    8.5438    0.2245 C.3     1  UNL1        0.0000
     52 H           3.8651    7.6924   -0.0356 H       1  UNL1        0.0000
     53 C           3.7958    9.7976   -0.2721 C.3     1  UNL1        0.0000
     54 H           4.4559   10.6598   -0.2823 H       1  UNL1        0.0000
     55 H           2.9447   10.0132    0.3696 H       1  UNL1        0.0000
     56 H           3.4335    9.6426   -1.2882 H       1  UNL1        0.0000
     57 C           5.8411    8.3527   -0.4900 C.3     1  UNL1        0.0000
     58 H           5.6669    8.2233   -1.5586 H       1  UNL1        0.0000
     59 H           6.3625    7.4714   -0.1244 H       1  UNL1        0.0000
     60 H           6.4834    9.2210   -0.3644 H       1  UNL1        0.0000
     61 C           5.9430    9.5293    2.6833 C.3     1  UNL1        0.0000
     62 H           5.7033    9.5891    3.7520 H       1  UNL1        0.0000
     63 C           5.7768   10.9335    2.1088 C.3     1  UNL1        0.0000
     64 H           6.3121   11.6576    2.7244 H       1  UNL1        0.0000
     65 H           4.7243   11.2133    2.0887 H       1  UNL1        0.0000
     66 H           6.1805   10.9950    1.1013 H       1  UNL1        0.0000
     67 C           7.3936    9.0753    2.5504 C.3     1  UNL1        0.0000
     68 H           7.6678    8.8800    1.5179 H       1  UNL1        0.0000
     69 H           7.5873    8.1800    3.1355 H       1  UNL1        0.0000
     70 H           8.0479    9.8627    2.9276 H       1  UNL1        0.0000
     71 C           5.2584    6.6936    2.2756 C.3     1  UNL1        0.0000
     72 H           4.8874    6.1116    1.4262 H       1  UNL1        0.0000
     73 H           6.3412    6.7494    2.1570 H       1  UNL1        0.0000
     74 C           5.8350    4.7019    3.9723 C.ar    1  UNL1        0.0000
     75 C           7.2175    4.8951    3.9996 C.ar    1  UNL1        0.0000
     76 H           7.6179    5.8836    3.8148 H       1  UNL1        0.0000
     77 C           8.1087    3.8717    4.2621 C.ar    1  UNL1        0.0000
     78 H           9.1732    4.0690    4.2702 H       1  UNL1        0.0000
     79 C           7.6417    2.5942    4.5174 C.ar    1  UNL1        0.0000
     80 H           8.3319    1.7872    4.7222 H       1  UNL1        0.0000
     81 C           6.2775    2.3689    4.5120 C.ar    1  UNL1        0.0000
     82 H           5.8942    1.3775    4.7175 H       1  UNL1        0.0000
     83 C           5.3998    3.4063    4.2468 C.ar    1  UNL1        0.0000
     84 H           4.3409    3.1884    4.2614 H       1  UNL1        0.0000
@<TRIPOS>BOND
     1    58    57    1
     2    56    53    1
     3     8     7    1
     4    57    60    1
     5    57    59    1
     6    57    51    1
     7    54    53    1
     8    53    51    1
     9    53    55    1
    10    52    51    1
    11    14    11    1
    12     7    10    1
    13     7     9    1
    14     7     5    1
    15    51     3    1
    16     6     5    1
    17    11    12    1
    18    11     5    1
    19    11    13    1
    20    66    63    1
    21     5     1    1
    22    72    71    1
    23    68    67    1
    24    65    63    1
    25     3    71    1
    26     3    61    1
    27    22    21    1
    28    63    61    1
    29    63    64    1
    30    73    71    1
    31    71     4    1
    32    67    61    1
    33    67    70    1
    34    67    69    1
    35    23    21    1
    36    61    62    1
    37     1    25    1
    38     1    15    1
    39    21    24    1
    40    21    15    1
    41    27    25    1
    42    20    17    1
    43    25     4    1
    44    25    26    1
    45     4    74    1
    46     4    48    1
    47    15    17    1
    48    15    16    1
    49    76    75    1
    50    74    75   ar
    51    74    83   ar
    52    75    77   ar
    53    17    19    1
    54    17    18    1
    55    83    84    1
    56    83    81   ar
    57    77    78    1
    58    77    79   ar
    59    81    79   ar
    60    81    82    1
    61    79    80    1
    62    49    48    1
    63    37    34    1
    64    48     2    1
    65    48    50    1
    66     2    28    1
    67     2    38    1
    68    31    30    1
    69    36    34    1
    70    39    38    1
    71    34    28    1
    72    34    35    1
    73    42    40    1
    74    28    30    1
    75    28    29    1
    76    38    40    1
    77    38    44    1
    78    30    32    1
    79    30    33    1
    80    40    41    1
    81    40    43    1
    82    46    44    1
    83    44    45    1
    84    44    47    1
