@<TRIPOS>MOLECULE
2,4
 84 84 0 0 0
SMALL
GASTEIGER

@<TRIPOS>ATOM
      1 B          -0.5511    9.2156   13.9491 B       1  UNL1        0.0000
      2 P           0.6446    7.2227   15.7351 P.3     1  UNL1        0.0000
      3 P          -0.4815    6.4873   12.8464 P.3     1  UNL1        0.0000
      4 P           2.0821    8.3221   13.1397 P.3     1  UNL1        0.0000
      5 C           1.9493    7.3184   17.0919 C.3     1  UNL1        0.0000
      6 H           2.8415    7.6175   16.5293 H       1  UNL1        0.0000
      7 C           1.7372    8.3450   18.2000 C.3     1  UNL1        0.0000
      8 H           0.9702    8.0318   18.9009 H       1  UNL1        0.0000
      9 H           1.4550    9.3130   17.7930 H       1  UNL1        0.0000
     10 H           2.6658    8.4714   18.7577 H       1  UNL1        0.0000
     11 C           2.2441    5.9329   17.6558 C.3     1  UNL1        0.0000
     12 H           3.2260    5.9164   18.1290 H       1  UNL1        0.0000
     13 H           2.2321    5.1996   16.8499 H       1  UNL1        0.0000
     14 H           1.5116    5.6493   18.4063 H       1  UNL1        0.0000
     15 C          -0.8510    6.4215   16.5564 C.3     1  UNL1        0.0000
     16 H          -1.6182    6.6040   15.7938 H       1  UNL1        0.0000
     17 C          -0.7284    4.9117   16.7490 C.3     1  UNL1        0.0000
     18 H          -0.2717    4.6671   17.7042 H       1  UNL1        0.0000
     19 H          -0.1156    4.4783   15.9620 H       1  UNL1        0.0000
     20 H          -1.7129    4.4437   16.7267 H       1  UNL1        0.0000
     21 C          -1.3432    7.0508   17.8583 C.3     1  UNL1        0.0000
     22 H          -2.3596    6.7095   18.0570 H       1  UNL1        0.0000
     23 H          -1.3598    8.1363   17.8159 H       1  UNL1        0.0000
     24 H          -0.7257    6.7446   18.6994 H       1  UNL1        0.0000
     25 C           0.0398    8.9157   15.4702 C.3     1  UNL1        0.0000
     26 H          -0.7068    9.1352   16.2358 H       1  UNL1        0.0000
     27 H           0.8774    9.5947   15.6502 H       1  UNL1        0.0000
     28 C          -0.4957    6.6760   10.9733 C.3     1  UNL1        0.0000
     29 H          -0.1107    7.6978   10.8594 H       1  UNL1        0.0000
     30 C           0.4504    5.7341   10.2382 C.3     1  UNL1        0.0000
     31 H           0.0439    4.7288   10.1735 H       1  UNL1        0.0000
     32 H           1.4036    5.6785   10.7578 H       1  UNL1        0.0000
     33 H           0.6272    6.0937    9.2242 H       1  UNL1        0.0000
     34 C          -1.8699    6.6295   10.3092 C.3     1  UNL1        0.0000
     35 H          -1.8057    7.0763    9.3166 H       1  UNL1        0.0000
     36 H          -2.6183    7.1786   10.8739 H       1  UNL1        0.0000
     37 H          -2.2057    5.6031   10.1850 H       1  UNL1        0.0000
     38 C          -1.5977    5.0224   13.2141 C.3     1  UNL1        0.0000
     39 H          -1.4647    4.9327   14.2968 H       1  UNL1        0.0000
     40 C          -1.0432    3.7535   12.5748 C.3     1  UNL1        0.0000
     41 H          -1.4169    2.8676   13.0885 H       1  UNL1        0.0000
     42 H           0.0449    3.7516   12.6270 H       1  UNL1        0.0000
     43 H          -1.3435    3.6794   11.5325 H       1  UNL1        0.0000
     44 C          -3.0968    5.1615   12.9580 C.3     1  UNL1        0.0000
     45 H          -3.3455    5.0151   11.9119 H       1  UNL1        0.0000
     46 H          -3.4691    6.1352   13.2668 H       1  UNL1        0.0000
     47 H          -3.6285    4.4017   13.5319 H       1  UNL1        0.0000
     48 C          -1.4376    7.9473   13.3640 C.3     1  UNL1        0.0000
     49 H          -2.0267    8.2862   12.5067 H       1  UNL1        0.0000
     50 H          -2.1507    7.6182   14.1237 H       1  UNL1        0.0000
     51 C           3.2901    9.2244   14.2632 C.3     1  UNL1        0.0000
     52 H           2.8640    9.0206   15.2502 H       1  UNL1        0.0000
     53 C           3.4028   10.7431   14.1411 C.3     1  UNL1        0.0000
     54 H           4.1668   11.0920   14.8368 H       1  UNL1        0.0000
     55 H           2.4708   11.2358   14.4068 H       1  UNL1        0.0000
     56 H           3.6918   11.0583   13.1435 H       1  UNL1        0.0000
     57 C           4.6755    8.5856   14.2267 C.3     1  UNL1        0.0000
     58 H           5.2480    8.9445   13.3756 H       1  UNL1        0.0000
     59 H           4.5906    7.5016   14.1673 H       1  UNL1        0.0000
     60 H           5.2305    8.8387   15.1306 H       1  UNL1        0.0000
     61 C           2.8699    8.2984   11.4348 C.3     1  UNL1        0.0000
     62 H           2.0429    7.8931   10.8386 H       1  UNL1        0.0000
     63 C           3.2350    9.6602   10.8515 C.3     1  UNL1        0.0000
     64 H           4.1458   10.0479   11.3016 H       1  UNL1        0.0000
     65 H           2.4347   10.3818   10.9961 H       1  UNL1        0.0000
     66 H           3.4133    9.5619    9.7803 H       1  UNL1        0.0000
     67 C           4.0418    7.3279   11.3111 C.3     1  UNL1        0.0000
     68 H           4.1120    6.9457   10.2928 H       1  UNL1        0.0000
     69 H           3.9049    6.4885   11.9897 H       1  UNL1        0.0000
     70 H           4.9848    7.8126   11.5463 H       1  UNL1        0.0000
     71 C           0.7124    9.4964   12.9295 C.3     1  UNL1        0.0000
     72 H           1.1178   10.5010   13.0536 H       1  UNL1        0.0000
     73 H           0.3810    9.4108   11.8900 H       1  UNL1        0.0000
     74 C          -1.5697   10.4780   14.0289 C.ar    1  UNL1        0.0000
     75 C          -1.4608   11.6201   13.2381 C.ar    1  UNL1        0.0000
     76 H          -0.6483   11.7042   12.5296 H       1  UNL1        0.0000
     77 C          -2.3657   12.6650   13.3174 C.ar    1  UNL1        0.0000
     78 H          -2.2420   13.5353   12.6854 H       1  UNL1        0.0000
     79 C          -3.4289   12.6001   14.1991 C.ar    1  UNL1        0.0000
     80 H          -4.1381   13.4139   14.2662 H       1  UNL1        0.0000
     81 C          -3.5749   11.4737   14.9902 C.ar    1  UNL1        0.0000
     82 H          -4.4064   11.4030   15.6799 H       1  UNL1        0.0000
     83 C          -2.6617   10.4401   14.8982 C.ar    1  UNL1        0.0000
     84 H          -2.8086    9.5687   15.5243 H       1  UNL1        0.0000
@<TRIPOS>BOND
     1    33    30    1
     2    35    34    1
     3    66    63    1
     4    31    30    1
     5    37    34    1
     6    30    32    1
     7    30    28    1
     8    68    67    1
     9    34    36    1
    10    34    28    1
    11    62    61    1
    12    63    65    1
    13    63    64    1
    14    63    61    1
    15    29    28    1
    16    28     3    1
    17    67    61    1
    18    67    70    1
    19    67    69    1
    20    61     4    1
    21    43    40    1
    22    73    71    1
    23    45    44    1
    24    49    48    1
    25    76    75    1
    26    40    42    1
    27    40    41    1
    28    40    38    1
    29    78    77    1
    30     3    38    1
    31     3    48    1
    32    71    72    1
    33    71     4    1
    34    71     1    1
    35    44    38    1
    36    44    46    1
    37    44    47    1
    38     4    51    1
    39    56    53    1
    40    38    39    1
    41    75    77   ar
    42    75    74   ar
    43    77    79   ar
    44    48     1    1
    45    48    50    1
    46    58    57    1
    47     1    74    1
    48     1    25    1
    49    74    83   ar
    50    53    51    1
    51    53    55    1
    52    53    54    1
    53    59    57    1
    54    79    80    1
    55    79    81   ar
    56    57    51    1
    57    57    60    1
    58    51    52    1
    59    83    81   ar
    60    83    84    1
    61    81    82    1
    62    25    27    1
    63    25     2    1
    64    25    26    1
    65     2    15    1
    66     2     5    1
    67    16    15    1
    68    19    17    1
    69     6     5    1
    70    15    17    1
    71    15    21    1
    72    20    17    1
    73    17    18    1
    74    13    11    1
    75     5    11    1
    76     5     7    1
    77    11    12    1
    78    11    14    1
    79     9     7    1
    80    23    21    1
    81    21    22    1
    82    21    24    1
    83     7    10    1
    84     7     8    1
