@<TRIPOS>MOLECULE
1,2
 75 77 0 0 0
SMALL
GASTEIGER

@<TRIPOS>ATOM
      1 P           2.3183   -0.8309    3.4562 P.3     1  UNL1        0.0000
      2 P           0.3690    1.1606    5.4578 P.3     1  UNL1        0.0000
      3 C           4.2748   -0.7611    5.4630 C.ar    1  UNL1        0.0000
      4 C           1.3119   -2.3038    8.3185 C.ar    1  UNL1        0.0000
      5 H           1.5531   -3.1367    8.9648 H       1  UNL1        0.0000
      6 C           0.2377    2.6587    6.6025 C.3     1  UNL1        0.0000
      7 H          -0.3653    3.3937    6.0570 H       1  UNL1        0.0000
      8 C           0.7140   -0.1784    6.6453 C.ar    1  UNL1        0.0000
      9 C           3.5502   -0.1172    1.1023 C.3     1  UNL1        0.0000
     10 H           4.5492   -0.3692    1.4503 H       1  UNL1        0.0000
     11 H           3.3052    0.8714    1.4888 H       1  UNL1        0.0000
     12 H           3.5607   -0.0803    0.0143 H       1  UNL1        0.0000
     13 C           2.3194   -1.5828    7.7074 C.ar    1  UNL1        0.0000
     14 H           3.3488   -1.8586    7.8906 H       1  UNL1        0.0000
     15 C           0.2630   -2.7957    3.0244 C.3     1  UNL1        0.0000
     16 H           0.6934   -3.4903    2.3105 H       1  UNL1        0.0000
     17 H          -0.1644   -1.9621    2.4735 H       1  UNL1        0.0000
     18 H          -0.5480   -3.3116    3.5370 H       1  UNL1        0.0000
     19 C           2.5266   -1.1360    1.5969 C.3     1  UNL1        0.0000
     20 H           1.5492   -0.8292    1.2095 H       1  UNL1        0.0000
     21 C           5.4542   -1.2244    6.0451 C.ar    1  UNL1        0.0000
     22 H           5.7065   -0.8885    7.0410 H       1  UNL1        0.0000
     23 C           2.8149   -2.5351    1.0245 C.3     1  UNL1        0.0000
     24 H           2.0940   -2.7747    0.2437 H       1  UNL1        0.0000
     25 H           2.7635   -3.3189    1.7723 H       1  UNL1        0.0000
     26 H           3.8028   -2.5667    0.5684 H       1  UNL1        0.0000
     27 C           6.3192   -2.0838    5.3953 C.ar    1  UNL1        0.0000
     28 H           7.2271   -2.4147    5.8807 H       1  UNL1        0.0000
     29 C           3.9562   -1.2485    4.1869 C.ar    1  UNL1        0.0000
     30 C           2.0648   -0.5021    6.8597 C.ar    1  UNL1        0.0000
     31 C           3.7438    1.1494    8.7328 C.ar    1  UNL1        0.0000
     32 H           2.8265    0.6585    9.0327 H       1  UNL1        0.0000
     33 C           1.2991   -2.3249    4.0465 C.3     1  UNL1        0.0000
     34 H           0.7547   -1.9055    4.9007 H       1  UNL1        0.0000
     35 C           4.8381   -2.0983    3.5228 C.ar    1  UNL1        0.0000
     36 H           4.6230   -2.4542    2.5323 H       1  UNL1        0.0000
     37 C          -0.3061   -0.8939    7.2716 C.ar    1  UNL1        0.0000
     38 H          -1.3410   -0.6261    7.1118 H       1  UNL1        0.0000
     39 C           6.0193   -2.5065    4.1135 C.ar    1  UNL1        0.0000
     40 H           6.6931   -3.1597    3.5761 H       1  UNL1        0.0000
     41 C           4.4714    1.8371    9.6895 C.ar    1  UNL1        0.0000
     42 H           4.1154    1.8787   10.7108 H       1  UNL1        0.0000
     43 C          -1.4562    1.0598    5.0002 C.3     1  UNL1        0.0000
     44 H          -2.0802    1.0552    5.8987 H       1  UNL1        0.0000
     45 C          -0.0120   -1.9529    8.1080 C.ar    1  UNL1        0.0000
     46 H          -0.8092   -2.5015    8.5902 H       1  UNL1        0.0000
     47 C           5.6522    2.4703    9.3440 C.ar    1  UNL1        0.0000
     48 H           6.2228    3.0090   10.0883 H       1  UNL1        0.0000
     49 C          -0.4367    2.3534    7.9361 C.3     1  UNL1        0.0000
     50 H           0.1447    1.6258    8.4974 H       1  UNL1        0.0000
     51 H          -1.4442    1.9644    7.8070 H       1  UNL1        0.0000
     52 H          -0.5024    3.2656    8.5282 H       1  UNL1        0.0000
     53 C           2.1068   -3.5023    4.5851 C.3     1  UNL1        0.0000
     54 H           1.4221   -4.2743    4.9357 H       1  UNL1        0.0000
     55 H           2.7236   -3.1900    5.4238 H       1  UNL1        0.0000
     56 H           2.7545   -3.9407    3.8299 H       1  UNL1        0.0000
     57 C           5.3593    1.7108    7.0890 C.ar    1  UNL1        0.0000
     58 H           5.7237    1.6642    6.0713 H       1  UNL1        0.0000
     59 C          -1.7294   -0.2032    4.1954 C.3     1  UNL1        0.0000
     60 H          -2.7836   -0.2681    3.9270 H       1  UNL1        0.0000
     61 H          -1.4659   -1.0942    4.7595 H       1  UNL1        0.0000
     62 H          -1.1413   -0.1860    3.2805 H       1  UNL1        0.0000
     63 C          -1.7860    2.2966    4.1573 C.3     1  UNL1        0.0000
     64 H          -0.9222    2.5825    3.5522 H       1  UNL1        0.0000
     65 H          -2.0669    3.1444    4.7772 H       1  UNL1        0.0000
     66 H          -2.6214    2.0892    3.4901 H       1  UNL1        0.0000
     67 C           1.6178    3.2554    6.8317 C.3     1  UNL1        0.0000
     68 H           1.5418    4.2230    7.3272 H       1  UNL1        0.0000
     69 H           2.1230    3.3823    5.8750 H       1  UNL1        0.0000
     70 H           2.2201    2.5980    7.4521 H       1  UNL1        0.0000
     71 C           4.1624    1.0653    7.4050 C.ar    1  UNL1        0.0000
     72 B           3.3377    0.2897    6.2505 B       1  UNL1        0.0000
     73 C           6.0957    2.4013    8.0339 C.ar    1  UNL1        0.0000
     74 H           7.0174    2.8911    7.7478 H       1  UNL1        0.0000
     75 H           3.0076    1.1626    5.3943 H       1  UNL1        0.0000
@<TRIPOS>BOND
     1    12     9    1
     2    24    23    1
     3    26    23    1
     4    23    19    1
     5    23    25    1
     6     9    10    1
     7     9    11    1
     8     9    19    1
     9    20    19    1
    10    19     1    1
    11    16    15    1
    12    17    15    1
    13    36    35    1
    14    15    18    1
    15    15    33    1
    16    62    59    1
    17     1    33    1
    18     1    29    1
    19    66    63    1
    20    35    39   ar
    21    35    29   ar
    22    64    63    1
    23    40    39    1
    24    56    53    1
    25    60    59    1
    26    33    53    1
    27    33    34    1
    28    39    27   ar
    29    63    65    1
    30    63    43    1
    31    29     3   ar
    32    59    61    1
    33    59    43    1
    34    53    54    1
    35    53    55    1
    36    43     2    1
    37    43    44    1
    38    75    72    1
    39    27    28    1
    40    27    21   ar
    41     2     6    1
    42     2     8    1
    43     3    21   ar
    44     3    72    1
    45    69    67    1
    46    21    22    1
    47     7     6    1
    48    58    57    1
    49    72    30    1
    50    72    71    1
    51     6    67    1
    52     6    49    1
    53     8    30   ar
    54     8    37   ar
    55    67    68    1
    56    67    70    1
    57    30    13   ar
    58    57    71   ar
    59    57    73   ar
    60    38    37    1
    61    37    45   ar
    62    71    31   ar
    63    13    14    1
    64    13     4   ar
    65    74    73    1
    66    51    49    1
    67    49    50    1
    68    49    52    1
    69    73    47   ar
    70    45     4   ar
    71    45    46    1
    72     4     5    1
    73    31    32    1
    74    31    41   ar
    75    47    41   ar
    76    47    48    1
    77    41    42    1
