@<TRIPOS>MOLECULE
1,2
 49 52 0 0 0
SMALL
GASTEIGER

@<TRIPOS>ATOM
      1 P           3.7483    5.1209    2.9405 P.3     1  UNL1       -0.0389
      2 P           2.5248    3.2304    1.4921 P.3     1  UNL1       -0.0389
      3 C           3.1210    4.9699    1.1888 C.3     1  UNL1        0.0041
      4 H           3.8667    5.1334    0.4082 H       1  UNL1        0.0373
      5 H           2.2567    5.6174    1.0342 H       1  UNL1        0.0373
      6 C           5.5521    5.0417    2.6178 C.ar    1  UNL1       -0.0186
      7 C           6.0471    3.7964    2.2430 C.ar    1  UNL1       -0.0538
      8 H           5.3621    2.9600    2.1987 H       1  UNL1        0.0624
      9 C           7.3843    3.6313    1.9420 C.ar    1  UNL1       -0.0612
     10 H           7.7545    2.6611    1.6431 H       1  UNL1        0.0618
     11 C           8.2486    4.7117    2.0322 C.ar    1  UNL1       -0.0617
     12 H           9.2974    4.5868    1.8056 H       1  UNL1        0.0618
     13 C           7.7663    5.9504    2.4195 C.ar    1  UNL1       -0.0612
     14 H           8.4398    6.7920    2.4952 H       1  UNL1        0.0618
     15 C           6.4228    6.1208    2.7098 C.ar    1  UNL1       -0.0538
     16 H           6.0555    7.0924    3.0078 H       1  UNL1        0.0624
     17 C           3.6006    6.8704    3.4224 C.ar    1  UNL1       -0.0186
     18 C           3.2555    7.9171    2.5780 C.ar    1  UNL1       -0.0538
     19 H           3.0762    7.7327    1.5281 H       1  UNL1        0.0624
     20 C           3.1536    9.2029    3.0815 C.ar    1  UNL1       -0.0612
     21 H           2.8828   10.0168    2.4242 H       1  UNL1        0.0618
     22 C           3.3985    9.4503    4.4219 C.ar    1  UNL1       -0.0617
     23 H           3.3149   10.4554    4.8082 H       1  UNL1        0.0618
     24 C           3.7522    8.4102    5.2682 C.ar    1  UNL1       -0.0612
     25 H           3.9461    8.6048    6.3130 H       1  UNL1        0.0618
     26 C           3.8462    7.1257    4.7697 C.ar    1  UNL1       -0.0538
     27 H           4.1176    6.2942    5.4085 H       1  UNL1        0.0624
     28 C           1.0608    3.0402    0.4125 C.ar    1  UNL1       -0.0186
     29 C           0.0858    2.1363    0.8128 C.ar    1  UNL1       -0.0538
     30 H           0.2091    1.6287    1.7585 H       1  UNL1        0.0624
     31 C          -1.0239    1.9123    0.0195 C.ar    1  UNL1       -0.0612
     32 H          -1.7845    1.2125    0.3344 H       1  UNL1        0.0618
     33 C          -1.1623    2.5933   -1.1791 C.ar    1  UNL1       -0.0617
     34 H          -2.0318    2.4266   -1.7980 H       1  UNL1        0.0618
     35 C          -0.1859    3.4877   -1.5877 C.ar    1  UNL1       -0.0612
     36 H          -0.2944    4.0133   -2.5258 H       1  UNL1        0.0618
     37 C           0.9287    3.7076   -0.7990 C.ar    1  UNL1       -0.0538
     38 H           1.6967    4.3979   -1.1210 H       1  UNL1        0.0624
     39 C           3.5917    2.1249    0.4876 C.ar    1  UNL1       -0.0186
     40 C           3.3454    0.7705    0.7033 C.ar    1  UNL1       -0.0538
     41 H           2.5741    0.4933    1.4103 H       1  UNL1        0.0624
     42 C           4.0724   -0.1947    0.0360 C.ar    1  UNL1       -0.0612
     43 H           3.8746   -1.2424    0.2113 H       1  UNL1        0.0618
     44 C           5.0634    0.1861   -0.8556 C.ar    1  UNL1       -0.0617
     45 H           5.6401   -0.5641   -1.3767 H       1  UNL1        0.0618
     46 C           5.3142    1.5294   -1.0754 C.ar    1  UNL1       -0.0612
     47 H           6.0868    1.8275   -1.7698 H       1  UNL1        0.0618
     48 C           4.5824    2.4985   -0.4103 C.ar    1  UNL1       -0.0538
     49 H           4.8014    3.5405   -0.5910 H       1  UNL1        0.0624
@<TRIPOS>BOND
     1    36    35    1
     2    34    33    1
     3    47    46    1
     4    35    33   ar
     5    35    37   ar
     6    45    44    1
     7    33    31   ar
     8    38    37    1
     9    46    44   ar
    10    46    48   ar
    11    44    42   ar
    12    37    28   ar
    13    49    48    1
    14    48    39   ar
    15    31    32    1
    16    31    29   ar
    17    42    43    1
    18    42    40   ar
    19     4     3    1
    20    28    29   ar
    21    28     2    1
    22    39    40   ar
    23    39     2    1
    24    40    41    1
    25    29    30    1
    26     5     3    1
    27     3     2    1
    28     3     1    1
    29    19    18    1
    30    10     9    1
    31    12    11    1
    32     9    11   ar
    33     9     7   ar
    34    11    13   ar
    35     8     7    1
    36     7     6   ar
    37    13    14    1
    38    13    15   ar
    39    21    20    1
    40    18    20   ar
    41    18    17   ar
    42     6    15   ar
    43     6     1    1
    44    15    16    1
    45     1    17    1
    46    20    22   ar
    47    17    26   ar
    48    22    23    1
    49    22    24   ar
    50    26    24   ar
    51    26    27    1
    52    24    25    1
