@<TRIPOS>MOLECULE
1,2
 79 78 0 0 0
SMALL
GASTEIGER

@<TRIPOS>ATOM
      1 P           4.5198    2.1336    9.9399 P.3     1  UNL1        0.0000
      2 P           2.7473    2.6097    5.7587 P.3     1  UNL1        0.0000
      3 SI          3.1945   -0.7613    9.3727 Si      1  UNL1        0.0000
      4 SI          1.7868   -0.3088    6.7346 Si      1  UNL1        0.0000
      5 O           2.7232    0.1083    8.0381 O.3     1  UNL1        0.0000
      6 C           1.6710   -1.2761   10.3953 C.3     1  UNL1        0.0000
      7 H           1.3794   -2.2851   10.1241 H       1  UNL1        0.0000
      8 H           0.8062   -0.6393   10.2473 H       1  UNL1        0.0000
      9 H           1.9001   -1.2893   11.4562 H       1  UNL1        0.0000
     10 C           4.1107   -2.3559    8.8894 C.3     1  UNL1        0.0000
     11 H           3.4405   -3.0531    8.3955 H       1  UNL1        0.0000
     12 H           4.4922   -2.8498    9.7784 H       1  UNL1        0.0000
     13 H           4.9519   -2.1837    8.2248 H       1  UNL1        0.0000
     14 C           4.3681    0.3548   10.4014 C.3     1  UNL1        0.0000
     15 H           4.1343    0.2720   11.4635 H       1  UNL1        0.0000
     16 H           5.3730   -0.0514   10.2639 H       1  UNL1        0.0000
     17 C           6.1840    2.5912   10.7469 C.3     1  UNL1        0.0000
     18 C           6.2756    4.1115   10.8669 C.3     1  UNL1        0.0000
     19 H           7.3089    4.4024   11.0511 H       1  UNL1        0.0000
     20 H           5.6727    4.4914   11.6865 H       1  UNL1        0.0000
     21 H           5.9561    4.5727    9.9317 H       1  UNL1        0.0000
     22 C           6.4566    1.9266   12.0964 C.3     1  UNL1        0.0000
     23 H           7.4060    2.2995   12.4800 H       1  UNL1        0.0000
     24 H           6.5446    0.8470   12.0001 H       1  UNL1        0.0000
     25 H           5.6916    2.1477   12.8334 H       1  UNL1        0.0000
     26 C           7.2661    2.1519    9.7576 C.3     1  UNL1        0.0000
     27 H           8.2495    2.4240   10.1381 H       1  UNL1        0.0000
     28 H           7.1208    2.6551    8.7987 H       1  UNL1        0.0000
     29 H           7.2616    1.0756    9.5963 H       1  UNL1        0.0000
     30 C           3.1223    2.9857   10.9218 C.3     1  UNL1        0.0000
     31 C           3.1751    2.8514   12.4415 C.3     1  UNL1        0.0000
     32 H           2.2495    3.2459   12.8619 H       1  UNL1        0.0000
     33 H           3.9967    3.4199   12.8685 H       1  UNL1        0.0000
     34 H           3.2630    1.8127   12.7552 H       1  UNL1        0.0000
     35 C           1.8375    2.3146   10.4288 C.3     1  UNL1        0.0000
     36 H           0.9653    2.9053   10.7082 H       1  UNL1        0.0000
     37 H           1.7321    1.3268   10.8685 H       1  UNL1        0.0000
     38 H           1.8439    2.2134    9.3431 H       1  UNL1        0.0000
     39 C           3.0986    4.4701   10.5329 C.3     1  UNL1        0.0000
     40 H           2.0781    4.8496   10.5320 H       1  UNL1        0.0000
     41 H           3.5223    4.6144    9.5365 H       1  UNL1        0.0000
     42 H           3.6714    5.0749   11.2290 H       1  UNL1        0.0000
     43 C           2.6222   -1.6679    5.7022 C.3     1  UNL1        0.0000
     44 H           3.6943   -1.5315    5.5991 H       1  UNL1        0.0000
     45 H           2.1987   -1.7232    4.7041 H       1  UNL1        0.0000
     46 H           2.4644   -2.6356    6.1700 H       1  UNL1        0.0000
     47 C           0.0988   -0.9462    7.3346 C.3     1  UNL1        0.0000
     48 H          -0.3986   -0.2569    8.0104 H       1  UNL1        0.0000
     49 H           0.1991   -1.8958    7.8478 H       1  UNL1        0.0000
     50 H          -0.5593   -1.1039    6.4869 H       1  UNL1        0.0000
     51 C           1.4116    1.3318    5.8164 C.3     1  UNL1        0.0000
     52 H           1.0720    1.1168    4.8031 H       1  UNL1        0.0000
     53 H           0.5735    1.7947    6.3404 H       1  UNL1        0.0000
     54 C           1.7138    4.2148    5.8724 C.3     1  UNL1        0.0000
     55 C           2.6538    5.3934    5.6241 C.3     1  UNL1        0.0000
     56 H           2.2013    6.3187    5.9777 H       1  UNL1        0.0000
     57 H           2.8749    5.5135    4.5671 H       1  UNL1        0.0000
     58 H           3.5896    5.2358    6.1672 H       1  UNL1        0.0000
     59 C           0.4795    4.3071    4.9739 C.3     1  UNL1        0.0000
     60 H          -0.1508    5.1207    5.3334 H       1  UNL1        0.0000
     61 H          -0.1151    3.3967    4.9965 H       1  UNL1        0.0000
     62 H           0.7334    4.5273    3.9437 H       1  UNL1        0.0000
     63 C           1.2464    4.2923    7.3285 C.3     1  UNL1        0.0000
     64 H           0.7746    5.2552    7.5188 H       1  UNL1        0.0000
     65 H           2.1052    4.1976    7.9893 H       1  UNL1        0.0000
     66 H           0.5220    3.5151    7.5689 H       1  UNL1        0.0000
     67 C           3.4355    2.4698    3.9842 C.3     1  UNL1        0.0000
     68 C           4.7585    3.2418    3.9575 C.3     1  UNL1        0.0000
     69 H           5.3372    2.9662    3.0776 H       1  UNL1        0.0000
     70 H           5.3583    3.0200    4.8449 H       1  UNL1        0.0000
     71 H           4.5961    4.3155    3.9346 H       1  UNL1        0.0000
     72 C           3.7277    0.9892    3.7275 C.3     1  UNL1        0.0000
     73 H           4.3018    0.8848    2.8079 H       1  UNL1        0.0000
     74 H           2.8128    0.4118    3.6166 H       1  UNL1        0.0000
     75 H           4.3205    0.5590    4.5277 H       1  UNL1        0.0000
     76 C           2.5219    2.9653    2.8659 C.3     1  UNL1        0.0000
     77 H           2.9473    2.6644    1.9085 H       1  UNL1        0.0000
     78 H           2.4437    4.0483    2.8599 H       1  UNL1        0.0000
     79 H           1.5259    2.5322    2.9366 H       1  UNL1        0.0000
@<TRIPOS>BOND
     1    77    76    1
     2    73    72    1
     3    78    76    1
     4    76    79    1
     5    76    67    1
     6    69    68    1
     7    74    72    1
     8    72    67    1
     9    72    75    1
    10    71    68    1
    11    62    59    1
    12    68    67    1
    13    68    70    1
    14    67     2    1
    15    57    55    1
    16    45    43    1
    17    52    51    1
    18    59    61    1
    19    59    60    1
    20    59    54    1
    21    44    43    1
    22    55    54    1
    23    55    56    1
    24    55    58    1
    25    43    46    1
    26    43     4    1
    27     2    51    1
    28     2    54    1
    29    51    53    1
    30    51     4    1
    31    54    63    1
    32    50    47    1
    33     4    47    1
    34     4     5    1
    35    63    64    1
    36    63    66    1
    37    63    65    1
    38    47    49    1
    39    47    48    1
    40     5     3    1
    41    13    10    1
    42    11    10    1
    43    28    26    1
    44    10     3    1
    45    10    12    1
    46    38    35    1
    47     3     6    1
    48     3    14    1
    49    41    39    1
    50    29    26    1
    51    26    27    1
    52    26    17    1
    53    21    18    1
    54     1    14    1
    55     1    17    1
    56     1    30    1
    57     7     6    1
    58     8     6    1
    59    16    14    1
    60     6     9    1
    61    14    15    1
    62    35    36    1
    63    35    37    1
    64    35    30    1
    65    40    39    1
    66    39    30    1
    67    39    42    1
    68    17    18    1
    69    17    22    1
    70    18    19    1
    71    18    20    1
    72    30    31    1
    73    24    22    1
    74    22    23    1
    75    22    25    1
    76    31    34    1
    77    31    32    1
    78    31    33    1
