@<TRIPOS>MOLECULE
1,2
 52 55 0 0 0
SMALL
GASTEIGER

@<TRIPOS>ATOM
      1 P          12.7699    4.0067    6.5388 P.3     1  UNL1       -0.0435
      2 P          12.9854    0.9336    6.5089 P.3     1  UNL1       -0.0435
      3 C          11.6655    5.4457    6.3820 C.ar    1  UNL1       -0.0189
      4 C          10.2832    5.2694    6.3464 C.ar    1  UNL1       -0.0538
      5 H           9.8552    4.2868    6.4801 H       1  UNL1        0.0624
      6 C           9.4489    6.3484    6.1174 C.ar    1  UNL1       -0.0612
      7 H           8.3797    6.1992    6.0960 H       1  UNL1        0.0618
      8 C           9.9785    7.6109    5.9103 C.ar    1  UNL1       -0.0617
      9 H           9.3244    8.4515    5.7288 H       1  UNL1        0.0618
     10 C          11.3516    7.7922    5.9348 C.ar    1  UNL1       -0.0612
     11 H          11.7714    8.7746    5.7717 H       1  UNL1        0.0618
     12 C          12.1911    6.7188    6.1676 C.ar    1  UNL1       -0.0538
     13 H          13.2617    6.8680    6.1819 H       1  UNL1        0.0624
     14 C          14.1446    4.7714    7.4627 C.ar    1  UNL1       -0.0189
     15 C          14.2567    4.8368    8.8480 C.ar    1  UNL1       -0.0538
     16 H          13.4964    4.4143    9.4888 H       1  UNL1        0.0624
     17 C          15.3509    5.4553    9.4274 C.ar    1  UNL1       -0.0612
     18 H          15.4328    5.4938   10.5046 H       1  UNL1        0.0618
     19 C          16.3346    6.0294    8.6390 C.ar    1  UNL1       -0.0617
     20 H          17.1812    6.5161    9.1016 H       1  UNL1        0.0618
     21 C          16.2259    5.9789    7.2596 C.ar    1  UNL1       -0.0612
     22 H          16.9835    6.4240    6.6317 H       1  UNL1        0.0618
     23 C          15.1436    5.3457    6.6799 C.ar    1  UNL1       -0.0538
     24 H          15.0576    5.2982    5.6020 H       1  UNL1        0.0624
     25 C          11.6247   -0.2698    6.7220 C.ar    1  UNL1       -0.0189
     26 C          11.6703   -1.1729    7.7854 C.ar    1  UNL1       -0.0538
     27 H          12.5267   -1.1781    8.4480 H       1  UNL1        0.0624
     28 C          10.6397   -2.0694    7.9831 C.ar    1  UNL1       -0.0612
     29 H          10.6852   -2.7688    8.8059 H       1  UNL1        0.0618
     30 C           9.5469   -2.0737    7.1283 C.ar    1  UNL1       -0.0617
     31 H           8.7409   -2.7753    7.2875 H       1  UNL1        0.0618
     32 C           9.4938   -1.1795    6.0747 C.ar    1  UNL1       -0.0612
     33 H           8.6468   -1.1747    5.4052 H       1  UNL1        0.0618
     34 C          10.5306   -0.2843    5.8711 C.ar    1  UNL1       -0.0538
     35 H          10.4821    0.4122    5.0421 H       1  UNL1        0.0624
     36 C          14.4087   -0.1550    6.8174 C.ar    1  UNL1       -0.0189
     37 C          15.5704    0.3135    7.4262 C.ar    1  UNL1       -0.0538
     38 H          15.6142    1.3171    7.8303 H       1  UNL1        0.0624
     39 C          16.6830   -0.5030    7.5263 C.ar    1  UNL1       -0.0612
     40 H          17.5728   -0.1351    8.0164 H       1  UNL1        0.0618
     41 C          16.6622   -1.7834    6.9999 C.ar    1  UNL1       -0.0617
     42 H          17.5347   -2.4158    7.0768 H       1  UNL1        0.0618
     43 C          15.5183   -2.2501    6.3730 C.ar    1  UNL1       -0.0612
     44 H          15.4980   -3.2458    5.9532 H       1  UNL1        0.0618
     45 C          14.4021   -1.4418    6.2828 C.ar    1  UNL1       -0.0538
     46 H          13.5032   -1.8081    5.8057 H       1  UNL1        0.0624
     47 C          11.9076    3.0217    7.8360 C.3     1  UNL1       -0.0199
     48 H          11.6777    3.6180    8.7252 H       1  UNL1        0.0323
     49 H          10.9657    2.6669    7.3942 H       1  UNL1        0.0323
     50 C          12.8009    1.8258    8.1237 C.3     1  UNL1       -0.0199
     51 H          12.3754    1.1689    8.8895 H       1  UNL1        0.0323
     52 H          13.7896    2.1698    8.4480 H       1  UNL1        0.0323
@<TRIPOS>BOND
     1    35    34    1
     2    33    32    1
     3    24    23    1
     4     9     8    1
     5    11    10    1
     6    46    45    1
     7    34    32   ar
     8    34    25   ar
     9     8    10   ar
    10     8     6   ar
    11    10    12   ar
    12    44    43    1
    13    32    30   ar
    14     7     6    1
    15     6     4   ar
    16    12    13    1
    17    12     3   ar
    18    45    43   ar
    19    45    36   ar
    20     4     3   ar
    21     4     5    1
    22    43    41   ar
    23     3     1    1
    24     2    25    1
    25     2    36    1
    26     2    50    1
    27     1    14    1
    28     1    47    1
    29    22    21    1
    30    23    21   ar
    31    23    14   ar
    32    25    26   ar
    33    36    37   ar
    34    41    42    1
    35    41    39   ar
    36    30    31    1
    37    30    28   ar
    38    21    19   ar
    39    49    47    1
    40    37    39   ar
    41    37    38    1
    42    14    15   ar
    43    39    40    1
    44    26    28   ar
    45    26    27    1
    46    47    50    1
    47    47    48    1
    48    28    29    1
    49    50    52    1
    50    50    51    1
    51    19    20    1
    52    19    17   ar
    53    15    17   ar
    54    15    16    1
    55    17    18    1
