@<TRIPOS>MOLECULE
1,2
 52 55 0 0 0
SMALL
GASTEIGER

@<TRIPOS>ATOM
      1 P          13.7096    4.0068    2.9761 P.3     1  UNL1       -0.0435
      2 P          13.4942    0.9337    3.0060 P.3     1  UNL1       -0.0435
      3 C          14.8138    5.4460    3.1327 C.ar    1  UNL1       -0.0189
      4 C          16.1961    5.2698    3.1684 C.ar    1  UNL1       -0.0538
      5 H          16.6242    4.2873    3.0350 H       1  UNL1        0.0624
      6 C          17.0302    6.3489    3.3974 C.ar    1  UNL1       -0.0612
      7 H          18.0995    6.1999    3.4190 H       1  UNL1        0.0618
      8 C          16.5005    7.6114    3.6042 C.ar    1  UNL1       -0.0617
      9 H          17.1545    8.4521    3.7857 H       1  UNL1        0.0618
     10 C          15.1273    7.7925    3.5796 C.ar    1  UNL1       -0.0612
     11 H          14.7074    8.7749    3.7426 H       1  UNL1        0.0618
     12 C          14.2880    6.7190    3.3470 C.ar    1  UNL1       -0.0538
     13 H          13.2173    6.8680    3.3326 H       1  UNL1        0.0624
     14 C          12.3349    4.7710    2.0520 C.ar    1  UNL1       -0.0189
     15 C          12.2230    4.8362    0.6666 C.ar    1  UNL1       -0.0538
     16 H          12.9835    4.4139    0.0260 H       1  UNL1        0.0624
     17 C          11.1287    5.4543    0.0869 C.ar    1  UNL1       -0.0612
     18 H          11.0470    5.4927   -0.9902 H       1  UNL1        0.0618
     19 C          10.1447    6.0282    0.8751 C.ar    1  UNL1       -0.0617
     20 H           9.2980    6.5145    0.4124 H       1  UNL1        0.0618
     21 C          10.2532    5.9779    2.2546 C.ar    1  UNL1       -0.0612
     22 H           9.4954    6.4228    2.8824 H       1  UNL1        0.0618
     23 C          11.3356    5.3451    2.8346 C.ar    1  UNL1       -0.0538
     24 H          11.4216    5.2979    3.9125 H       1  UNL1        0.0624
     25 C          14.8545   -0.2701    2.7932 C.ar    1  UNL1       -0.0189
     26 C          14.8086   -1.1735    1.7300 C.ar    1  UNL1       -0.0538
     27 H          13.9520   -1.1785    1.0675 H       1  UNL1        0.0624
     28 C          15.8387   -2.0704    1.5324 C.ar    1  UNL1       -0.0612
     29 H          15.7929   -2.7701    0.7098 H       1  UNL1        0.0618
     30 C          16.9317   -2.0748    2.3872 C.ar    1  UNL1       -0.0617
     31 H          17.7373   -2.7768    2.2281 H       1  UNL1        0.0618
     32 C          16.9852   -1.1804    3.4405 C.ar    1  UNL1       -0.0612
     33 H          17.8323   -1.1757    4.1099 H       1  UNL1        0.0618
     34 C          15.9487   -0.2848    3.6439 C.ar    1  UNL1       -0.0538
     35 H          15.9976    0.4119    4.4728 H       1  UNL1        0.0624
     36 C          12.0705   -0.1545    2.6972 C.ar    1  UNL1       -0.0189
     37 C          10.9091    0.3144    2.0881 C.ar    1  UNL1       -0.0538
     38 H          10.8658    1.3180    1.6838 H       1  UNL1        0.0624
     39 C           9.7963   -0.5018    1.9880 C.ar    1  UNL1       -0.0612
     40 H           8.9068   -0.1335    1.4976 H       1  UNL1        0.0618
     41 C           9.8165   -1.7820    2.5145 C.ar    1  UNL1       -0.0617
     42 H           8.9438   -2.4141    2.4375 H       1  UNL1        0.0618
     43 C          10.9601   -2.2491    3.1417 C.ar    1  UNL1       -0.0612
     44 H          10.9799   -3.2447    3.5617 H       1  UNL1        0.0618
     45 C          12.0766   -1.4412    3.2321 C.ar    1  UNL1       -0.0538
     46 H          12.9752   -1.8076    3.7094 H       1  UNL1        0.0624
     47 C          14.5724    3.0218    1.6792 C.3     1  UNL1       -0.0199
     48 H          14.8025    3.6180    0.7900 H       1  UNL1        0.0323
     49 H          15.5141    2.6670    2.1213 H       1  UNL1        0.0323
     50 C          13.6793    1.8257    1.3912 C.3     1  UNL1       -0.0199
     51 H          14.1053    1.1688    0.6257 H       1  UNL1        0.0323
     52 H          12.6907    2.1696    1.0664 H       1  UNL1        0.0323
@<TRIPOS>BOND
     1    18    17    1
     2    16    15    1
     3    17    15   ar
     4    17    19   ar
     5    20    19    1
     6    51    50    1
     7    15    14   ar
     8    29    28    1
     9    48    47    1
    10    19    21   ar
    11    52    50    1
    12    27    26    1
    13    50    47    1
    14    50     2    1
    15    40    39    1
    16    28    26   ar
    17    28    30   ar
    18    47    49    1
    19    47     1    1
    20    38    37    1
    21    26    25   ar
    22    39    37   ar
    23    39    41   ar
    24    14    23   ar
    25    14     1    1
    26    37    36   ar
    27    31    30    1
    28    21    23   ar
    29    21    22    1
    30    30    32   ar
    31    42    41    1
    32    41    43   ar
    33    36     2    1
    34    36    45   ar
    35    25     2    1
    36    25    34   ar
    37    23    24    1
    38     1     3    1
    39     5     4    1
    40     3     4   ar
    41     3    12   ar
    42    43    45   ar
    43    43    44    1
    44     4     6   ar
    45    45    46    1
    46    13    12    1
    47    12    10   ar
    48     6     7    1
    49     6     8   ar
    50    32    34   ar
    51    32    33    1
    52    10     8   ar
    53    10    11    1
    54     8     9    1
    55    34    35    1
