@<TRIPOS>MOLECULE
1,25
 48 47 0 0 0
SMALL
GASTEIGER

@<TRIPOS>ATOM
      1 P          -2.2994    5.6888    3.7256 P.3     1  UNL1       -0.1003
      2 C          -1.5082    7.3763    3.9301 C.3     1  UNL1       -0.0279
      3 C          -3.8771    5.9429    4.7102 C.3     1  UNL1       -0.0259
      4 C          -4.8266    4.7809    4.4432 C.3     1  UNL1       -0.0587
      5 C          -3.4837    5.9872    6.1822 C.3     1  UNL1       -0.0587
      6 C          -2.9542    5.8252    1.9692 C.3     1  UNL1       -0.0259
      7 C          -3.6639    7.1274    1.6102 C.3     1  UNL1       -0.0587
      8 C          -1.8029    5.5415    1.0083 C.3     1  UNL1       -0.0587
      9 H          -2.2663    8.1301    4.1612 H       1  UNL1        0.0317
     10 H          -1.0689    7.6261    2.9614 H       1  UNL1        0.0317
     11 H          -4.3552    6.8892    4.4300 H       1  UNL1        0.0343
     12 H          -5.2726    4.8501    3.4536 H       1  UNL1        0.0236
     13 H          -5.6331    4.7695    5.1748 H       1  UNL1        0.0236
     14 H          -4.2816    3.8399    4.5139 H       1  UNL1        0.0236
     15 H          -2.9909    6.9255    6.4254 H       1  UNL1        0.0236
     16 H          -2.7985    5.1640    6.3936 H       1  UNL1        0.0236
     17 H          -4.3598    5.8918    6.8215 H       1  UNL1        0.0236
     18 H          -3.6698    4.9990    1.8801 H       1  UNL1        0.0343
     19 H          -4.5057    7.3192    2.2705 H       1  UNL1        0.0236
     20 H          -4.0464    7.0628    0.5920 H       1  UNL1        0.0236
     21 H          -2.9848    7.9752    1.6571 H       1  UNL1        0.0236
     22 H          -1.3042    4.6133    1.2947 H       1  UNL1        0.0236
     23 H          -1.0756    6.3520    1.0154 H       1  UNL1        0.0236
     24 H          -2.1727    5.4334   -0.0106 H       1  UNL1        0.0236
     25 P           0.3934    5.6648    5.1258 P.3     1  UNL1       -0.1003
     26 C          -0.4192    7.3501    4.9947 C.3     1  UNL1       -0.0279
     27 C           1.9743    5.9849    4.1573 C.3     1  UNL1       -0.0259
     28 C           1.0502    5.7828    6.8880 C.3     1  UNL1       -0.0259
     29 H           0.3370    8.1167    4.8004 H       1  UNL1        0.0317
     30 H          -0.8599    7.5488    5.9730 H       1  UNL1        0.0317
     31 C           2.9499    4.8359    4.3860 C.3     1  UNL1       -0.0587
     32 C           1.5918    6.0717    2.6841 C.3     1  UNL1       -0.0587
     33 H           2.4338    6.9299    4.4683 H       1  UNL1        0.0343
     34 C           1.7943    7.0629    7.2575 C.3     1  UNL1       -0.0587
     35 C          -0.1063    5.5254    7.8494 C.3     1  UNL1       -0.0587
     36 H           1.7447    4.9389    6.9762 H       1  UNL1        0.0343
     37 H           3.3506    4.8504    5.3969 H       1  UNL1        0.0236
     38 H           3.7869    4.8992    3.6914 H       1  UNL1        0.0236
     39 H           2.4446    3.8822    4.2294 H       1  UNL1        0.0236
     40 H           1.0524    6.9930    2.4758 H       1  UNL1        0.0236
     41 H           0.9526    5.2240    2.4222 H       1  UNL1        0.0236
     42 H           2.4771    6.0493    2.0496 H       1  UNL1        0.0236
     43 H           2.6645    7.2209    6.6257 H       1  UNL1        0.0236
     44 H           2.1406    6.9918    8.2881 H       1  UNL1        0.0236
     45 H           1.1472    7.9335    7.1843 H       1  UNL1        0.0236
     46 H          -0.6622    4.6456    7.5262 H       1  UNL1        0.0236
     47 H          -0.7836    6.3761    7.8871 H       1  UNL1        0.0236
     48 H           0.2680    5.3522    8.8571 H       1  UNL1        0.0236
@<TRIPOS>BOND
     1    24     8    1
     2    20     7    1
     3     8    23    1
     4     8    22    1
     5     8     6    1
     6     7    21    1
     7     7     6    1
     8     7    19    1
     9    18     6    1
    10     6     1    1
    11    42    32    1
    12    41    32    1
    13    40    32    1
    14    32    27    1
    15    10     2    1
    16    12     4    1
    17    38    31    1
    18     1     2    1
    19     1     3    1
    20     2     9    1
    21     2    26    1
    22    27    31    1
    23    27    33    1
    24    27    25    1
    25    39    31    1
    26    31    37    1
    27    11     3    1
    28     4    14    1
    29     4     3    1
    30     4    13    1
    31     3     5    1
    32    29    26    1
    33    26    25    1
    34    26    30    1
    35    25    28    1
    36     5    16    1
    37     5    15    1
    38     5    17    1
    39    43    34    1
    40    28    36    1
    41    28    34    1
    42    28    35    1
    43    45    34    1
    44    34    44    1
    45    46    35    1
    46    35    47    1
    47    35    48    1
