@<TRIPOS>MOLECULE
1,16
 52 55 0 0 0
SMALL
GASTEIGER

@<TRIPOS>ATOM
      1 P           3.9301    8.1525   14.2599 P.3     1  UNL1       -0.0435
      2 C           3.6520    7.3408   15.9010 C.3     1  UNL1       -0.0199
      3 C           4.9802    7.2036   16.6398 C.3     1  UNL1       -0.0199
      4 C           2.3707    7.9248   13.3636 C.ar    1  UNL1       -0.0189
      5 C           2.4551    7.8901   11.9738 C.ar    1  UNL1       -0.0538
      6 C           1.3139    7.7271   11.2110 C.ar    1  UNL1       -0.0612
      7 C           0.0833    7.5932   11.8338 C.ar    1  UNL1       -0.0617
      8 C          -0.0056    7.6275   13.2165 C.ar    1  UNL1       -0.0612
      9 C           1.1323    7.7953   13.9853 C.ar    1  UNL1       -0.0538
     10 C           3.9552    9.9226   14.6832 C.ar    1  UNL1       -0.0189
     11 C           5.1120   10.4245   15.2759 C.ar    1  UNL1       -0.0538
     12 C           5.2000   11.7629   15.6041 C.ar    1  UNL1       -0.0612
     13 C           4.1400   12.6113   15.3278 C.ar    1  UNL1       -0.0617
     14 C           2.9944   12.1194   14.7250 C.ar    1  UNL1       -0.0612
     15 C           2.8973   10.7789   14.3972 C.ar    1  UNL1       -0.0538
     16 P           6.3815    6.8060   15.4512 P.3     1  UNL1       -0.0435
     17 C           7.7416    7.7451   16.2130 C.ar    1  UNL1       -0.0189
     18 C           8.4359    8.6928   15.4711 C.ar    1  UNL1       -0.0538
     19 C           9.4687    9.4068   16.0519 C.ar    1  UNL1       -0.0612
     20 C           9.8077    9.1780   17.3741 C.ar    1  UNL1       -0.0617
     21 C           9.1101    8.2406   18.1210 C.ar    1  UNL1       -0.0612
     22 C           8.0776    7.5247   17.5471 C.ar    1  UNL1       -0.0538
     23 C           6.7603    5.0844   15.9003 C.ar    1  UNL1       -0.0189
     24 C           5.7146    4.1628   15.8731 C.ar    1  UNL1       -0.0538
     25 C           5.9552    2.8279   16.1323 C.ar    1  UNL1       -0.0612
     26 C           7.2451    2.3986   16.4051 C.ar    1  UNL1       -0.0617
     27 C           8.2891    3.3076   16.4175 C.ar    1  UNL1       -0.0612
     28 C           8.0544    4.6482   16.1649 C.ar    1  UNL1       -0.0538
     29 H           2.9337    7.9177   16.4921 H       1  UNL1        0.0323
     30 H           3.2186    6.3575   15.6874 H       1  UNL1        0.0323
     31 H           4.9208    6.4327   17.4137 H       1  UNL1        0.0323
     32 H           5.2342    8.1527   17.1237 H       1  UNL1        0.0323
     33 H           3.4274    7.9841   11.5012 H       1  UNL1        0.0624
     34 H           1.3837    7.6982   10.1343 H       1  UNL1        0.0618
     35 H          -0.8090    7.4592   11.2413 H       1  UNL1        0.0618
     36 H          -0.9660    7.5229   13.6990 H       1  UNL1        0.0618
     37 H           1.0555    7.8273   15.0626 H       1  UNL1        0.0624
     38 H           5.9518    9.7651   15.4645 H       1  UNL1        0.0624
     39 H           6.1013   12.1462   16.0578 H       1  UNL1        0.0618
     40 H           4.2134   13.6605   15.5697 H       1  UNL1        0.0618
     41 H           2.1743   12.7840   14.4982 H       1  UNL1        0.0618
     42 H           2.0075   10.4000   13.9144 H       1  UNL1        0.0624
     43 H           8.1763    8.8666   14.4350 H       1  UNL1        0.0624
     44 H          10.0115   10.1349   15.4688 H       1  UNL1        0.0618
     45 H          10.6203    9.7272   17.8249 H       1  UNL1        0.0618
     46 H           9.3775    8.0622   19.1519 H       1  UNL1        0.0618
     47 H           7.5376    6.7838   18.1214 H       1  UNL1        0.0624
     48 H           4.7110    4.4958   15.6414 H       1  UNL1        0.0624
     49 H           5.1399    2.1202   16.1120 H       1  UNL1        0.0618
     50 H           7.4345    1.3538   16.5988 H       1  UNL1        0.0618
     51 H           9.2970    2.9769   16.6153 H       1  UNL1        0.0618
     52 H           8.8817    5.3430   16.1592 H       1  UNL1        0.0624
@<TRIPOS>BOND
     1    34     6    1
     2     6     7   ar
     3     6     5   ar
     4    35     7    1
     5    33     5    1
     6     7     8   ar
     7     5     4   ar
     8     8    36    1
     9     8     9   ar
    10     4     9   ar
    11     4     1    1
    12    42    15    1
    13     9    37    1
    14     1    10    1
    15     1     2    1
    16    15    10   ar
    17    15    14   ar
    18    43    18    1
    19    41    14    1
    20    10    11   ar
    21    14    13   ar
    22    11    38    1
    23    11    12   ar
    24    13    40    1
    25    13    12   ar
    26    16    23    1
    27    16    17    1
    28    16     3    1
    29    44    19    1
    30    18    19   ar
    31    18    17   ar
    32    12    39    1
    33    48    24    1
    34    30     2    1
    35    24    23   ar
    36    24    25   ar
    37    23    28   ar
    38     2    29    1
    39     2     3    1
    40    19    20   ar
    41    49    25    1
    42    25    26   ar
    43    52    28    1
    44    28    27   ar
    45    17    22   ar
    46    26    27   ar
    47    26    50    1
    48    27    51    1
    49     3    32    1
    50     3    31    1
    51    20    45    1
    52    20    21   ar
    53    22    21   ar
    54    22    47    1
    55    21    46    1
