@<TRIPOS>MOLECULE
1,2
 82 87 0 0 0
SMALL
GASTEIGER

@<TRIPOS>ATOM
      1 P           0.6587    7.9838   14.9974 P.3     1  UNL1        0.0000
      2 P           3.1178    7.1650   17.4084 P.3     1  UNL1        0.0000
      3 C           2.0152    7.8200   14.0018 C.3     1  UNL1        0.0000
      4 C           3.3043    8.3279   14.5741 C.3     1  UNL1        0.0000
      5 C           4.3140    7.2066   14.8465 C.3     1  UNL1        0.0000
      6 C           4.3031    6.7497   16.2767 C.3     1  UNL1        0.0000
      7 C           3.9678    9.4209   13.6876 C.3     1  UNL1        0.0000
      8 C           5.0299    9.9941   14.5857 C.ar    1  UNL1        0.0000
      9 C           5.9596    9.0432   15.0053 C.ar    1  UNL1        0.0000
     10 C           6.9657    9.3923   15.8837 C.ar    1  UNL1        0.0000
     11 C           7.0419   10.7006   16.3385 C.ar    1  UNL1        0.0000
     12 C           6.1205   11.6446   15.9189 C.ar    1  UNL1        0.0000
     13 C           5.1036   11.2942   15.0429 C.ar    1  UNL1        0.0000
     14 C           4.6648    8.7650   12.5351 C.ar    1  UNL1        0.0000
     15 C           4.4348    9.0091   11.1955 C.ar    1  UNL1        0.0000
     16 C           5.1956    8.3441   10.2456 C.ar    1  UNL1        0.0000
     17 C           6.1779    7.4486   10.6339 C.ar    1  UNL1        0.0000
     18 C           6.4052    7.1954   11.9793 C.ar    1  UNL1        0.0000
     19 C           5.6466    7.8549   12.9260 C.ar    1  UNL1        0.0000
     20 C           5.7337    7.6821   14.4146 C.3     1  UNL1        0.0000
     21 O           2.0401    7.3263   12.7561 O.3     1  UNL1        0.0000
     22 SI          1.8129    5.8030   12.1588 Si      1  UNL1        0.0000
     23 C           0.9137    6.0850   10.5119 C.3     1  UNL1        0.0000
     24 C           3.5123    4.9985   11.8365 C.3     1  UNL1        0.0000
     25 C           0.8359    4.7497   13.4112 C.3     1  UNL1        0.0000
     26 O           5.2984    5.9041   16.6190 O.3     1  UNL1        0.0000
     27 SI          5.4086    4.2761   16.3662 Si      1  UNL1        0.0000
     28 C           6.2430    3.6256   17.9406 C.3     1  UNL1        0.0000
     29 C           3.6484    3.5897   16.1130 C.3     1  UNL1        0.0000
     30 C           6.4928    3.9648   14.8271 C.3     1  UNL1        0.0000
     31 C          -1.8200    6.8120   14.5946 C.ar    1  UNL1        0.0000
     32 C          -2.9680    6.5379   13.8748 C.ar    1  UNL1        0.0000
     33 C          -3.1102    7.0205   12.5835 C.ar    1  UNL1        0.0000
     34 C          -2.1038    7.7852   12.0145 C.ar    1  UNL1        0.0000
     35 C          -0.9512    8.0579   12.7267 C.ar    1  UNL1        0.0000
     36 C          -0.7935    7.5563   14.0172 C.ar    1  UNL1        0.0000
     37 C           4.9676    6.7415   19.4361 C.ar    1  UNL1        0.0000
     38 C           5.4294    6.1588   20.6008 C.ar    1  UNL1        0.0000
     39 C           4.6671    5.1984   21.2467 C.ar    1  UNL1        0.0000
     40 C           3.4380    4.8241   20.7285 C.ar    1  UNL1        0.0000
     41 C           2.9685    5.4083   19.5661 C.ar    1  UNL1        0.0000
     42 C           3.7363    6.3631   18.9081 C.ar    1  UNL1        0.0000
     43 H           3.0607    8.8215   15.5274 H       1  UNL1        0.0000
     44 H           4.0734    6.3344   14.2244 H       1  UNL1        0.0000
     45 H           3.2299   10.1615   13.3740 H       1  UNL1        0.0000
     46 H           7.6810    8.6529   16.2140 H       1  UNL1        0.0000
     47 H           7.8254   10.9840   17.0259 H       1  UNL1        0.0000
     48 H           6.1891   12.6599   16.2800 H       1  UNL1        0.0000
     49 H           4.3773   12.0277   14.7242 H       1  UNL1        0.0000
     50 H           3.6718    9.7110   10.8927 H       1  UNL1        0.0000
     51 H           5.0241    8.5293    9.1956 H       1  UNL1        0.0000
     52 H           6.7689    6.9407    9.8860 H       1  UNL1        0.0000
     53 H           7.1678    6.4925   12.2829 H       1  UNL1        0.0000
     54 H           6.4914    6.9601   14.7182 H       1  UNL1        0.0000
     55 H           0.9583    5.1906    9.9005 H       1  UNL1        0.0000
     56 H           1.3786    6.8899    9.9512 H       1  UNL1        0.0000
     57 H          -0.1323    6.3373   10.6526 H       1  UNL1        0.0000
     58 H           3.4072    4.1871   11.1236 H       1  UNL1        0.0000
     59 H           3.9610    4.5780   12.7330 H       1  UNL1        0.0000
     60 H           4.2145    5.7126   11.4171 H       1  UNL1        0.0000
     61 H           1.1166    3.7017   13.3786 H       1  UNL1        0.0000
     62 H          -0.2346    4.8054   13.2374 H       1  UNL1        0.0000
     63 H           1.0159    5.1079   14.4260 H       1  UNL1        0.0000
     64 H           6.5586    2.5963   17.8097 H       1  UNL1        0.0000
     65 H           5.5723    3.6642   18.7934 H       1  UNL1        0.0000
     66 H           7.1214    4.2119   18.1909 H       1  UNL1        0.0000
     67 H           3.5349    2.5858   16.5070 H       1  UNL1        0.0000
     68 H           3.3611    3.5625   15.0653 H       1  UNL1        0.0000
     69 H           2.9312    4.2279   16.6294 H       1  UNL1        0.0000
     70 H           6.6055    2.9003   14.6500 H       1  UNL1        0.0000
     71 H           7.4893    4.3749   14.9652 H       1  UNL1        0.0000
     72 H           6.0798    4.4045   13.9230 H       1  UNL1        0.0000
     73 H          -1.7120    6.4471   15.6087 H       1  UNL1        0.0000
     74 H          -3.7576    5.9534   14.3235 H       1  UNL1        0.0000
     75 H          -4.0106    6.8113   12.0252 H       1  UNL1        0.0000
     76 H          -2.2249    8.1781   11.0151 H       1  UNL1        0.0000
     77 H          -0.1694    8.6629   12.2917 H       1  UNL1        0.0000
     78 H           5.5529    7.4942   18.9260 H       1  UNL1        0.0000
     79 H           6.3838    6.4557   21.0105 H       1  UNL1        0.0000
     80 H           5.0285    4.7453   22.1581 H       1  UNL1        0.0000
     81 H           2.8419    4.0784   21.2338 H       1  UNL1        0.0000
     82 H           2.0044    5.1202   19.1656 H       1  UNL1        0.0000
@<TRIPOS>BOND
     1    51    16    1
     2    52    17    1
     3    55    23    1
     4    56    23    1
     5    16    17   ar
     6    16    15   ar
     7    23    57    1
     8    23    22    1
     9    17    18   ar
    10    50    15    1
    11    76    34    1
    12    58    24    1
    13    15    14   ar
    14    60    24    1
    15    24    22    1
    16    24    59    1
    17    18    53    1
    18    18    19   ar
    19    34    33   ar
    20    34    35   ar
    21    75    33    1
    22    22    21    1
    23    22    25    1
    24    77    35    1
    25    14    19   ar
    26    14     7    1
    27    33    32   ar
    28    35    36   ar
    29    21     3    1
    30    19    20    1
    31    62    25    1
    32    45     7    1
    33    61    25    1
    34    25    63    1
    35     7     4    1
    36     7     8    1
    37    32    74    1
    38    32    31   ar
    39    72    30    1
    40     3     4    1
    41     3     1    1
    42    36    31   ar
    43    36     1    1
    44    44     5    1
    45    20    54    1
    46    20     5    1
    47    20     9    1
    48     4     5    1
    49     4    43    1
    50     8     9   ar
    51     8    13   ar
    52    31    73    1
    53    70    30    1
    54    49    13    1
    55    30    71    1
    56    30    27    1
    57     5     6    1
    58     9    10   ar
    59    13    12   ar
    60    68    29    1
    61    10    46    1
    62    10    11   ar
    63    12    48    1
    64    12    11   ar
    65    29    27    1
    66    29    67    1
    67    29    69    1
    68     6    26    1
    69     6     2    1
    70    11    47    1
    71    27    26    1
    72    27    28    1
    73     2    42    1
    74    64    28    1
    75    28    66    1
    76    28    65    1
    77    42    37   ar
    78    42    41   ar
    79    78    37    1
    80    82    41    1
    81    37    38   ar
    82    41    40   ar
    83    38    79    1
    84    38    39   ar
    85    40    81    1
    86    40    39   ar
    87    39    80    1
