@<TRIPOS>MOLECULE
4,5
 41 42 0 0 0
SMALL
GASTEIGER

@<TRIPOS>ATOM
      1 C           7.4826    3.0400   14.7888 C.2     1  UNL1        0.0000
      2 N           5.3780    2.5741   15.2197 N.pl3   1  UNL1        0.0000
      3 SI          3.9566    1.6304   14.7325 Si      1  UNL1        0.0000
      4 P           5.6161    3.7970   16.3283 P.3     1  UNL1        0.0000
      5 P           2.5859    2.7918   17.3411 P.3     1  UNL1        0.0000
      6 C           7.2371    3.9884   15.8099 C.3     1  UNL1        0.0000
      7 N           6.4659    2.2798   14.4742 N.2     1  UNL1        0.0000
      8 C           8.2173    4.9552   16.3845 C.3     1  UNL1        0.0000
      9 H           7.7421    5.5463   17.1672 H       1  UNL1        0.0000
     10 H           8.5880    5.6345   15.6171 H       1  UNL1        0.0000
     11 H           9.0739    4.4334   16.8127 H       1  UNL1        0.0000
     12 N           1.8029    0.8211   15.9356 N.pl3   1  UNL1        0.0000
     13 C           8.8265    3.8644   12.8653 C.3     1  UNL1        0.0000
     14 H           9.7677    3.7548   12.3321 H       1  UNL1        0.0000
     15 H           8.7383    4.8944   13.2030 H       1  UNL1        0.0000
     16 H           8.0093    3.6568   12.1791 H       1  UNL1        0.0000
     17 N           2.7777    1.7496   16.0526 N.3     1  UNL1        0.0000
     18 C           8.7730    2.8980   14.0494 C.3     1  UNL1        0.0000
     19 H           8.8506    1.8736   13.6840 H       1  UNL1        0.0000
     20 H           9.6058    3.0973   14.7260 H       1  UNL1        0.0000
     21 C           0.9007    0.9541   16.8713 C.2     1  UNL1        0.0000
     22 C           1.1234    2.0176   17.7804 C.2     1  UNL1        0.0000
     23 C          -0.2870   -0.9904   15.8222 C.3     1  UNL1        0.0000
     24 H          -1.1583   -1.6352   15.9084 H       1  UNL1        0.0000
     25 H           0.6112   -1.5994   15.8650 H       1  UNL1        0.0000
     26 H          -0.3093   -0.4909   14.8579 H       1  UNL1        0.0000
     27 C          -0.2774    0.0377   16.9450 C.3     1  UNL1        0.0000
     28 H          -1.1892    0.6413   16.9086 H       1  UNL1        0.0000
     29 H          -0.2649   -0.4675   17.9156 H       1  UNL1        0.0000
     30 C           0.2603    2.3704   18.9437 C.3     1  UNL1        0.0000
     31 H           0.6648    3.2386   19.4628 H       1  UNL1        0.0000
     32 H           0.1954    1.5394   19.6471 H       1  UNL1        0.0000
     33 H          -0.7515    2.6050   18.6116 H       1  UNL1        0.0000
     34 C           3.2038    2.4385   13.1876 C.3     1  UNL1        0.0000
     35 H           2.3067    1.9103   12.8807 H       1  UNL1        0.0000
     36 H           3.9083    2.4120   12.3623 H       1  UNL1        0.0000
     37 H           2.9347    3.4780   13.3625 H       1  UNL1        0.0000
     38 C           4.4851   -0.1800   14.5926 C.3     1  UNL1        0.0000
     39 H           3.6359   -0.7972   14.3225 H       1  UNL1        0.0000
     40 H           4.8884   -0.5563   15.5287 H       1  UNL1        0.0000
     41 H           5.2498   -0.2886   13.8322 H       1  UNL1        0.0000
@<TRIPOS>BOND
     1    16    13    1
     2    14    13    1
     3    36    34    1
     4    13    15    1
     5    13    18    1
     6    35    34    1
     7    34    37    1
     8    34     3    1
     9    19    18    1
    10    41    38    1
    11    18    20    1
    12    18     1    1
    13    39    38    1
    14     7     1    2
    15     7     2    1
    16    38     3    1
    17    38    40    1
    18     3     2    1
    19     3    17    1
    20     1     6    1
    21    26    23    1
    22     2     4    1
    23    10     8    1
    24     6     4    1
    25     6     8    1
    26    23    25    1
    27    23    24    1
    28    23    27    1
    29    12    17    1
    30    12    21    1
    31    17     5    1
    32     8    11    1
    33     8     9    1
    34    21    27    1
    35    21    22    2
    36    28    27    1
    37    27    29    1
    38     5    22    1
    39    22    30    1
    40    33    30    1
    41    30    31    1
    42    30    32    1
