@<TRIPOS>MOLECULE
1,5
 41 42 0 0 0
SMALL
GASTEIGER

@<TRIPOS>ATOM
      1 P           2.5499    7.0220   17.2537 P.3     1  UNL1        0.0000
      2 SI          3.9275    8.2254   14.6934 Si      1  UNL1        0.0000
      3 N           2.7759    8.1413   16.0406 N.3     1  UNL1        0.0000
      4 C           0.9709    8.9831   16.9661 C.2     1  UNL1        0.0000
      5 P           5.5560    6.0567   16.2814 P.3     1  UNL1        0.0000
      6 N           1.8521    9.1273   16.0126 N.pl3   1  UNL1        0.0000
      7 C           1.1586    7.8515   17.7996 C.2     1  UNL1        0.0000
      8 N           5.3628    7.3199   15.2135 N.3     1  UNL1        0.0000
      9 C          -0.1490    9.9574   17.1376 C.3     1  UNL1        0.0000
     10 H          -0.0757   10.3991   18.1360 H       1  UNL1        0.0000
     11 H          -1.0950    9.4091   17.0974 H       1  UNL1        0.0000
     12 N           6.4852    7.6547   14.5399 N.pl3   1  UNL1        0.0000
     13 C          -0.1345   11.0528   16.0804 C.3     1  UNL1        0.0000
     14 H          -0.2170   10.6168   15.0890 H       1  UNL1        0.0000
     15 H           0.7986   11.6061   16.1281 H       1  UNL1        0.0000
     16 H          -0.9636   11.7388   16.2369 H       1  UNL1        0.0000
     17 C           0.3102    7.4647   18.9628 C.3     1  UNL1        0.0000
     18 H          -0.7196    7.2932   18.6474 H       1  UNL1        0.0000
     19 H           0.3012    8.2535   19.7158 H       1  UNL1        0.0000
     20 H           0.6917    6.5502   19.4182 H       1  UNL1        0.0000
     21 C           7.4947    6.8990   14.8864 C.2     1  UNL1        0.0000
     22 C           7.2076    5.9126   15.8610 C.2     1  UNL1        0.0000
     23 C           8.8224    7.0849   14.2272 C.3     1  UNL1        0.0000
     24 H           9.6189    6.8802   14.9447 H       1  UNL1        0.0000
     25 H           8.9012    8.1206   13.8959 H       1  UNL1        0.0000
     26 C           8.9617    6.1543   13.0216 C.3     1  UNL1        0.0000
     27 H           8.1806    6.3669   12.2960 H       1  UNL1        0.0000
     28 H           8.8750    5.1135   13.3248 H       1  UNL1        0.0000
     29 H           9.9290    6.2964   12.5461 H       1  UNL1        0.0000
     30 C           8.1661    4.9385   16.4592 C.3     1  UNL1        0.0000
     31 H           8.5820    4.2812   15.6958 H       1  UNL1        0.0000
     32 H           7.6567    4.3248   17.2034 H       1  UNL1        0.0000
     33 H           8.9946    5.4565   16.9435 H       1  UNL1        0.0000
     34 C           4.4281   10.0333   14.4669 C.3     1  UNL1        0.0000
     35 H           5.1992   10.1162   13.7098 H       1  UNL1        0.0000
     36 H           4.8158   10.4596   15.3879 H       1  UNL1        0.0000
     37 H           3.5724   10.6235   14.1605 H       1  UNL1        0.0000
     38 C           3.1668    7.3205   13.2046 C.3     1  UNL1        0.0000
     39 H           3.8577    7.3106   12.3673 H       1  UNL1        0.0000
     40 H           2.2555    7.8131   12.8803 H       1  UNL1        0.0000
     41 H           2.9197    6.2876   13.4446 H       1  UNL1        0.0000
@<TRIPOS>BOND
     1    27    26    1
     2    39    38    1
     3    29    26    1
     4    40    38    1
     5    26    28    1
     6    26    23    1
     7    38    41    1
     8    38     2    1
     9    35    34    1
    10    25    23    1
    11    37    34    1
    12    23    21    1
    13    23    24    1
    14    34     2    1
    15    34    36    1
    16    12    21    1
    17    12     8    1
    18     2     8    1
    19     2     3    1
    20    21    22    2
    21    14    13    1
    22     8     5    1
    23    31    30    1
    24    22     5    1
    25    22    30    1
    26     6     3    1
    27     6     4    1
    28     3     1    1
    29    13    15    1
    30    13    16    1
    31    13     9    1
    32    30    33    1
    33    30    32    1
    34     4     9    1
    35     4     7    2
    36    11     9    1
    37     9    10    1
    38     1     7    1
    39     7    17    1
    40    18    17    1
    41    17    20    1
    42    17    19    1
