@<TRIPOS>MOLECULE
1,5
 41 42 0 0 0
SMALL
GASTEIGER

@<TRIPOS>ATOM
      1 P          -0.4771    6.1602    9.2186 P.3     1  UNL1        0.0000
      2 SI          1.1413    8.3067   10.8814 Si      1  UNL1        0.0000
      3 N          -0.2584    7.3333   10.3927 N.pl3   1  UNL1        0.0000
      4 C          -2.0759    5.8811    9.7771 C.3     1  UNL1        0.0000
      5 P           2.4582    7.1331    8.2515 P.3     1  UNL1        0.0000
      6 N          -1.3353    7.5478   11.1794 N.2     1  UNL1        0.0000
      7 C          -2.3312    6.7658   10.8515 C.2     1  UNL1        0.0000
      8 N           2.3242    8.1584    9.5689 N.3     1  UNL1        0.0000
      9 C          -3.0363    4.9077    9.1794 C.3     1  UNL1        0.0000
     10 H          -2.5525    4.3519    8.3763 H       1  UNL1        0.0000
     11 H          -3.9094    5.4199    8.7730 H       1  UNL1        0.0000
     12 H          -3.3840    4.1971    9.9286 H       1  UNL1        0.0000
     13 N           3.3472    9.0289    9.7116 N.pl3   1  UNL1        0.0000
     14 C          -3.6056    6.8181   11.6297 C.3     1  UNL1        0.0000
     15 H          -4.4471    6.6076   10.9677 H       1  UNL1        0.0000
     16 H          -3.7193    7.8223   12.0390 H       1  UNL1        0.0000
     17 C          -3.5812    5.8040   12.7743 C.3     1  UNL1        0.0000
     18 H          -4.5115    5.8473   13.3354 H       1  UNL1        0.0000
     19 H          -2.7560    6.0233   13.4470 H       1  UNL1        0.0000
     20 H          -3.4540    4.7937   12.3924 H       1  UNL1        0.0000
     21 C           3.9663    7.8409    7.8416 C.2     1  UNL1        0.0000
     22 C           4.2450    8.8690    8.7756 C.2     1  UNL1        0.0000
     23 C           4.8150    7.4694    6.6730 C.3     1  UNL1        0.0000
     24 H           4.3727    6.6294    6.1382 H       1  UNL1        0.0000
     25 H           5.8140    7.1827    7.0028 H       1  UNL1        0.0000
     26 H           4.9206    8.3087    5.9844 H       1  UNL1        0.0000
     27 C           5.4727    9.7197    8.7283 C.3     1  UNL1        0.0000
     28 H           5.5048   10.2313    7.7617 H       1  UNL1        0.0000
     29 H           6.3491    9.0666    8.7757 H       1  UNL1        0.0000
     30 C           5.5190   10.7376    9.8595 C.3     1  UNL1        0.0000
     31 H           6.4252   11.3349    9.7925 H       1  UNL1        0.0000
     32 H           5.4982   10.2306   10.8197 H       1  UNL1        0.0000
     33 H           4.6558   11.3945    9.8072 H       1  UNL1        0.0000
     34 C           0.5928   10.1156   10.9779 C.3     1  UNL1        0.0000
     35 H          -0.1974   10.2283   11.7114 H       1  UNL1        0.0000
     36 H           0.2182   10.4762   10.0238 H       1  UNL1        0.0000
     37 H           1.4263   10.7448   11.2686 H       1  UNL1        0.0000
     38 C           1.8903    7.5391   12.4476 C.3     1  UNL1        0.0000
     39 H           1.1783    7.5698   13.2661 H       1  UNL1        0.0000
     40 H           2.7775    8.0848   12.7523 H       1  UNL1        0.0000
     41 H           2.1750    6.5006   12.2919 H       1  UNL1        0.0000
@<TRIPOS>BOND
     1    26    23    1
     2    24    23    1
     3    23    25    1
     4    23    21    1
     5    28    27    1
     6    21     5    1
     7    21    22    2
     8     5     8    1
     9    10     9    1
    10    27    22    1
    11    27    29    1
    12    27    30    1
    13    11     9    1
    14    22    13    1
    15     9     4    1
    16     9    12    1
    17     1     4    1
    18     1     3    1
    19     8    13    1
    20     8     2    1
    21     4     7    1
    22    31    30    1
    23    33    30    1
    24    30    32    1
    25    36    34    1
    26     3     2    1
    27     3     6    1
    28     7     6    2
    29     7    14    1
    30     2    34    1
    31     2    38    1
    32    15    14    1
    33    34    37    1
    34    34    35    1
    35    14    16    1
    36    14    17    1
    37    41    38    1
    38    20    17    1
    39    38    40    1
    40    38    39    1
    41    17    18    1
    42    17    19    1
