@<TRIPOS>MOLECULE
1,2
 40 40 0 0 0
SMALL
GASTEIGER

@<TRIPOS>ATOM
      1 P           2.0433    2.9637    2.6789 P.3     1  UNL1        0.0000
      2 P           4.2722    1.6201    4.6861 P.3     1  UNL1        0.0000
      3 SI          3.5262    4.4778    4.6545 Si      1  UNL1        0.0000
      4 O           2.4433    3.7763    1.3449 O.3     1  UNL1        0.0000
      5 C           1.8581    5.0404    1.0456 C.3     1  UNL1        0.0000
      6 O           0.4366    3.0129    2.7044 O.3     1  UNL1        0.0000
      7 C          -0.3037    2.1387    1.8756 C.3     1  UNL1        0.0000
      8 O           2.1620    4.0644    3.8285 O.3     1  UNL1        0.0000
      9 O           5.8834    1.5610    4.8207 O.3     1  UNL1        0.0000
     10 C           6.5847    0.4307    4.3417 C.3     1  UNL1        0.0000
     11 O           3.7548    0.7536    5.9349 O.3     1  UNL1        0.0000
     12 C           4.2393    0.9977    7.2530 C.3     1  UNL1        0.0000
     13 O           4.1777    3.1023    5.2675 O.3     1  UNL1        0.0000
     14 C           4.7515    5.2590    3.4405 C.ar    1  UNL1        0.0000
     15 C           5.9005    4.5816    3.0330 C.ar    1  UNL1        0.0000
     16 C           6.7453    5.1197    2.0787 C.ar    1  UNL1        0.0000
     17 C           6.4616    6.3527    1.5171 C.ar    1  UNL1        0.0000
     18 C           5.3348    7.0495    1.9219 C.ar    1  UNL1        0.0000
     19 C           4.4907    6.5077    2.8740 C.ar    1  UNL1        0.0000
     20 C           2.9265    5.4933    6.1306 C.3     1  UNL1        0.0000
     21 H           1.3651    4.9712    0.0747 H       1  UNL1        0.0000
     22 H           2.6523    5.7870    1.0016 H       1  UNL1        0.0000
     23 H           1.1302    5.3231    1.8090 H       1  UNL1        0.0000
     24 H          -1.3514    2.4188    1.9871 H       1  UNL1        0.0000
     25 H          -0.1701    1.0982    2.1848 H       1  UNL1        0.0000
     26 H          -0.0076    2.2396    0.8282 H       1  UNL1        0.0000
     27 H           7.6260    0.5636    4.6362 H       1  UNL1        0.0000
     28 H           6.5177    0.3654    3.2517 H       1  UNL1        0.0000
     29 H           6.1963   -0.4920    4.7798 H       1  UNL1        0.0000
     30 H           4.2147    0.0461    7.7840 H       1  UNL1        0.0000
     31 H           3.5947    1.7187    7.7577 H       1  UNL1        0.0000
     32 H           5.2594    1.3860    7.2273 H       1  UNL1        0.0000
     33 H           6.1326    3.6240    3.4760 H       1  UNL1        0.0000
     34 H           7.6238    4.5733    1.7695 H       1  UNL1        0.0000
     35 H           7.1170    6.7717    0.7679 H       1  UNL1        0.0000
     36 H           5.1127    8.0153    1.4912 H       1  UNL1        0.0000
     37 H           3.6123    7.0535    3.1865 H       1  UNL1        0.0000
     38 H           3.7438    5.6746    6.8182 H       1  UNL1        0.0000
     39 H           2.1297    4.9925    6.6729 H       1  UNL1        0.0000
     40 H           2.5518    6.4550    5.8019 H       1  UNL1        0.0000
@<TRIPOS>BOND
     1    21     5    1
     2    35    17    1
     3    26     7    1
     4    22     5    1
     5     5     4    1
     6     5    23    1
     7     4     1    1
     8    36    18    1
     9    17    18   ar
    10    17    16   ar
    11    34    16    1
    12     7    24    1
    13     7    25    1
    14     7     6    1
    15    18    19   ar
    16    16    15   ar
    17     1     6    1
    18     1     8    1
    19    19    37    1
    20    19    14   ar
    21    15    14   ar
    22    15    33    1
    23    28    10    1
    24    14     3    1
    25     8     3    1
    26    10    27    1
    27    10    29    1
    28    10     9    1
    29     3    13    1
    30     3    20    1
    31     2     9    1
    32     2    13    1
    33     2    11    1
    34    40    20    1
    35    11    12    1
    36    20    39    1
    37    20    38    1
    38    32    12    1
    39    12    31    1
    40    12    30    1
