@<TRIPOS>MOLECULE
1,2
 33 32 0 0 0
SMALL
GASTEIGER

@<TRIPOS>ATOM
      1 P           3.0420    6.3983    4.2679 P.3     1  UNL1        0.0000
      2 P           2.1619    8.5998    6.2019 P.3     1  UNL1        0.0000
      3 SI          4.0026    9.2054    3.9290 Si      1  UNL1        0.0000
      4 O           3.0221    5.3780    3.0331 O.3     1  UNL1        0.0000
      5 C           2.2281    5.5830    1.8694 C.3     1  UNL1        0.0000
      6 O           4.1495    5.6989    5.1733 O.3     1  UNL1        0.0000
      7 C           5.4070    5.2774    4.6493 C.3     1  UNL1        0.0000
      8 O           3.8403    7.6043    3.5733 O.3     1  UNL1        0.0000
      9 O           1.2734    9.7520    6.8722 O.3     1  UNL1        0.0000
     10 C           0.2741   10.4770    6.1636 C.3     1  UNL1        0.0000
     11 O           3.1222    8.2608    7.4259 O.3     1  UNL1        0.0000
     12 C           3.8030    9.2751    8.1615 C.3     1  UNL1        0.0000
     13 O           3.0783    9.5179    5.2573 O.3     1  UNL1        0.0000
     14 C           3.3457   10.2252    2.4784 C.3     1  UNL1        0.0000
     15 C           5.8082    9.4600    4.4522 C.3     1  UNL1        0.0000
     16 H           2.5582    4.8395    1.1449 H       1  UNL1        0.0000
     17 H           2.3756    6.5871    1.4686 H       1  UNL1        0.0000
     18 H           1.1684    5.4359    2.0865 H       1  UNL1        0.0000
     19 H           6.0381    5.0583    5.5097 H       1  UNL1        0.0000
     20 H           5.8561    6.0660    4.0432 H       1  UNL1        0.0000
     21 H           5.2794    4.3812    4.0424 H       1  UNL1        0.0000
     22 H          -0.0184   11.3003    6.8143 H       1  UNL1        0.0000
     23 H          -0.5945    9.8487    5.9573 H       1  UNL1        0.0000
     24 H           0.6671   10.8654    5.2227 H       1  UNL1        0.0000
     25 H           4.5424    8.7628    8.7756 H       1  UNL1        0.0000
     26 H           3.1005    9.8148    8.7959 H       1  UNL1        0.0000
     27 H           4.2949    9.9767    7.4860 H       1  UNL1        0.0000
     28 H           3.9314   10.0300    1.5864 H       1  UNL1        0.0000
     29 H           3.4302   11.2843    2.6977 H       1  UNL1        0.0000
     30 H           2.3027   10.0103    2.2505 H       1  UNL1        0.0000
     31 H           6.4752    9.2360    3.6265 H       1  UNL1        0.0000
     32 H           6.0946    8.8324    5.2942 H       1  UNL1        0.0000
     33 H           5.9783   10.4940    4.7328 H       1  UNL1        0.0000
@<TRIPOS>BOND
     1    16     5    1
     2    17     5    1
     3    28    14    1
     4     5    18    1
     5     5     4    1
     6    30    14    1
     7    14    29    1
     8    14     3    1
     9     4     1    1
    10     8     3    1
    11     8     1    1
    12    31    15    1
    13     3    15    1
    14     3    13    1
    15    21     7    1
    16    20     7    1
    17     1     6    1
    18    15    33    1
    19    15    32    1
    20     7     6    1
    21     7    19    1
    22    24    10    1
    23    13     2    1
    24    23    10    1
    25    10    22    1
    26    10     9    1
    27     2     9    1
    28     2    11    1
    29    11    12    1
    30    27    12    1
    31    12    25    1
    32    12    26    1
