@<TRIPOS>MOLECULE
1,2
 44 45 0 0 0
SMALL
GASTEIGER

@<TRIPOS>ATOM
      1 P           2.5421   15.5902    3.9999 P.3     1  UNL1       -0.0997
      2 P           0.4051   15.9504    1.7824 P.3     1  UNL1       -0.0997
      3 C           3.0082   15.8026    6.7518 C.3     1  UNL1       -0.0585
      4 C           2.9329   14.7758    5.6273 C.3     1  UNL1       -0.0230
      5 C           4.2792   14.0910    5.4106 C.3     1  UNL1       -0.0460
      6 C           5.1924   15.1084    4.7301 C.3     1  UNL1       -0.0460
      7 C           4.3869   15.8816    3.6684 C.3     1  UNL1       -0.0230
      8 C           4.8722   15.5402    2.2622 C.3     1  UNL1       -0.0585
      9 C           2.1867   14.1042    2.9528 C.3     1  UNL1       -0.0279
     10 C           1.6462   14.5631    1.6087 C.3     1  UNL1       -0.0279
     11 C           0.1580   18.0313   -0.1547 C.3     1  UNL1       -0.0585
     12 C           0.6135   16.5896    0.0185 C.3     1  UNL1       -0.0230
     13 C          -0.1710   15.6207   -0.8616 C.3     1  UNL1       -0.0460
     14 C          -1.4993   15.3623   -0.1613 C.3     1  UNL1       -0.0460
     15 C          -1.2129   15.0850    1.3219 C.3     1  UNL1       -0.0230
     16 C          -1.2560   13.5870    1.6201 C.3     1  UNL1       -0.0585
     17 H           3.2215   15.3127    7.7016 H       1  UNL1        0.0236
     18 H           2.0627   16.3341    6.8349 H       1  UNL1        0.0236
     19 H           3.7897   16.5346    6.5567 H       1  UNL1        0.0236
     20 H           2.1426   14.0518    5.8522 H       1  UNL1        0.0346
     21 H           4.7057   13.7563    6.3585 H       1  UNL1        0.0271
     22 H           4.1568   13.2130    4.7737 H       1  UNL1        0.0271
     23 H           6.0449   14.6072    4.2678 H       1  UNL1        0.0271
     24 H           5.5894   15.7965    5.4781 H       1  UNL1        0.0271
     25 H           4.5265   16.9603    3.8134 H       1  UNL1        0.0346
     26 H           4.8748   14.4656    2.0934 H       1  UNL1        0.0236
     27 H           5.8937   15.8991    2.1329 H       1  UNL1        0.0236
     28 H           4.2556   16.0124    1.5031 H       1  UNL1        0.0236
     29 H           3.0758   13.4838    2.8173 H       1  UNL1        0.0317
     30 H           1.4354   13.5196    3.4899 H       1  UNL1        0.0317
     31 H           1.2159   13.7242    1.0595 H       1  UNL1        0.0317
     32 H           2.4692   14.9661    1.0108 H       1  UNL1        0.0317
     33 H           0.5966   18.4713   -1.0498 H       1  UNL1        0.0236
     34 H           0.4777   18.6117    0.7109 H       1  UNL1        0.0236
     35 H          -0.9234   18.1036   -0.2386 H       1  UNL1        0.0236
     36 H           1.6813   16.5439   -0.2273 H       1  UNL1        0.0346
     37 H          -0.3205   16.0349   -1.8612 H       1  UNL1        0.0271
     38 H           0.3780   14.6827   -0.9652 H       1  UNL1        0.0271
     39 H          -2.0210   14.5173   -0.6136 H       1  UNL1        0.0271
     40 H          -2.1443   16.2361   -0.2709 H       1  UNL1        0.0271
     41 H          -1.9767   15.5612    1.9447 H       1  UNL1        0.0346
     42 H          -2.2929   13.2540    1.6322 H       1  UNL1        0.0236
     43 H          -0.8232   13.3663    2.5916 H       1  UNL1        0.0236
     44 H          -0.7355   13.0123    0.8564 H       1  UNL1        0.0236
@<TRIPOS>BOND
     1    37    13    1
     2    33    11    1
     3    38    13    1
     4    13    14    1
     5    13    12    1
     6    39    14    1
     7    40    14    1
     8    35    11    1
     9    36    12    1
    10    14    15    1
    11    11    12    1
    12    11    34    1
    13    12     2    1
    14    44    16    1
    15    32    10    1
    16    31    10    1
    17    15    16    1
    18    15     2    1
    19    15    41    1
    20    28     8    1
    21    10     2    1
    22    10     9    1
    23    16    42    1
    24    16    43    1
    25    26     8    1
    26    27     8    1
    27     8     7    1
    28    29     9    1
    29     9    30    1
    30     9     1    1
    31     7    25    1
    32     7     1    1
    33     7     6    1
    34     1     4    1
    35    23     6    1
    36     6     5    1
    37     6    24    1
    38    22     5    1
    39     5     4    1
    40     5    21    1
    41     4    20    1
    42     4     3    1
    43    19     3    1
    44     3    18    1
    45     3    17    1
