@<TRIPOS>MOLECULE
1,2
 44 45 0 0 0
SMALL
GASTEIGER

@<TRIPOS>ATOM
      1 P           1.8880   19.0428    3.2870 P.3     1  UNL1       -0.0997
      2 P          -1.0614   18.4155    3.9785 P.3     1  UNL1       -0.0997
      3 C           3.5811   18.6488    1.0955 C.3     1  UNL1       -0.0585
      4 C           2.7670   19.7391    1.7773 C.3     1  UNL1       -0.0230
      5 C           3.6555   20.9165    2.2226 C.3     1  UNL1       -0.0460
      6 C           3.7025   21.0082    3.7532 C.3     1  UNL1       -0.0460
      7 C           3.3019   19.6576    4.3416 C.3     1  UNL1       -0.0230
      8 C           3.0532   19.7152    5.8395 C.3     1  UNL1       -0.0585
      9 C           0.6757   20.4371    3.5250 C.3     1  UNL1       -0.0279
     10 C          -0.7064   19.9935    3.0739 C.3     1  UNL1       -0.0279
     11 C          -0.8079   18.8138    6.8470 C.3     1  UNL1       -0.0585
     12 C          -1.6099   19.1891    5.6116 C.3     1  UNL1       -0.0230
     13 C          -3.0915   18.8429    5.7672 C.3     1  UNL1       -0.0460
     14 C          -3.7167   18.8976    4.3820 C.3     1  UNL1       -0.0460
     15 C          -2.8232   18.0564    3.4739 C.3     1  UNL1       -0.0230
     16 C          -3.0890   18.2597    1.9903 C.3     1  UNL1       -0.0585
     17 H           2.9713   17.7509    0.9996 H       1  UNL1        0.0236
     18 H           4.4616   18.4050    1.6864 H       1  UNL1        0.0236
     19 H           3.9068   18.9597    0.1032 H       1  UNL1        0.0236
     20 H           1.9997   20.0886    1.0773 H       1  UNL1        0.0346
     21 H           4.6629   20.7608    1.8322 H       1  UNL1        0.0271
     22 H           3.2925   21.8551    1.8011 H       1  UNL1        0.0271
     23 H           4.7012   21.2902    4.0938 H       1  UNL1        0.0271
     24 H           3.0127   21.7743    4.1124 H       1  UNL1        0.0271
     25 H           4.1103   18.9363    4.1560 H       1  UNL1        0.0346
     26 H           2.3394   20.4983    6.0897 H       1  UNL1        0.0236
     27 H           3.9824   19.9276    6.3675 H       1  UNL1        0.0236
     28 H           2.6642   18.7616    6.1906 H       1  UNL1        0.0236
     29 H           0.6495   20.6601    4.5970 H       1  UNL1        0.0317
     30 H           1.0029   21.3274    2.9808 H       1  UNL1        0.0317
     31 H          -0.7110   19.7917    1.9996 H       1  UNL1        0.0317
     32 H          -1.4642   20.7549    3.2890 H       1  UNL1        0.0317
     33 H          -0.8459   17.7415    7.0198 H       1  UNL1        0.0236
     34 H          -1.2227   19.3178    7.7202 H       1  UNL1        0.0236
     35 H           0.2330   19.1105    6.7410 H       1  UNL1        0.0236
     36 H          -1.5223   20.2755    5.4638 H       1  UNL1        0.0346
     37 H          -3.1839   17.8359    6.1766 H       1  UNL1        0.0271
     38 H          -3.5782   19.5368    6.4561 H       1  UNL1        0.0271
     39 H          -3.7456   19.9310    4.0257 H       1  UNL1        0.0271
     40 H          -4.7394   18.5155    4.3861 H       1  UNL1        0.0271
     41 H          -2.9717   16.9977    3.7229 H       1  UNL1        0.0346
     42 H          -3.1290   19.3188    1.7417 H       1  UNL1        0.0236
     43 H          -4.0382   17.8075    1.7048 H       1  UNL1        0.0236
     44 H          -2.2942   17.7951    1.4101 H       1  UNL1        0.0236
@<TRIPOS>BOND
     1    19     3    1
     2    17     3    1
     3    20     4    1
     4     3    18    1
     5     3     4    1
     6    44    16    1
     7    43    16    1
     8    42    16    1
     9     4     5    1
    10     4     1    1
    11    22     5    1
    12    21     5    1
    13    16    15    1
    14    31    10    1
    15     5     6    1
    16    30     9    1
    17    10    32    1
    18    10     9    1
    19    10     2    1
    20     1     9    1
    21     1     7    1
    22    15    41    1
    23    15     2    1
    24    15    14    1
    25     9    29    1
    26     6    23    1
    27     6    24    1
    28     6     7    1
    29     2    12    1
    30    39    14    1
    31    25     7    1
    32     7     8    1
    33    14    40    1
    34    14    13    1
    35    36    12    1
    36    12    13    1
    37    12    11    1
    38    13    37    1
    39    13    38    1
    40     8    26    1
    41     8    28    1
    42     8    27    1
    43    35    11    1
    44    11    33    1
    45    11    34    1
