@<TRIPOS>MOLECULE
2
 48 50 0 0 0
SMALL
GASTEIGER

@<TRIPOS>ATOM
      1 P          -1.8714   -0.0969   -2.1307 P.3     1  UNL1       -0.0682
      2 P           0.3960   -2.0038   -2.7648 P.3     1  UNL1       -0.0682
      3 C          -1.9392    2.6426   -1.0398 C.3     1  UNL1       -0.0582
      4 C          -2.7344    1.5210   -1.6907 C.3     1  UNL1       -0.0191
      5 C          -4.0294    1.2000   -0.9445 C.3     1  UNL1       -0.0457
      6 C          -4.5638   -0.0864   -1.5492 C.3     1  UNL1       -0.0457
      7 C          -3.3992   -1.0735   -1.5632 C.3     1  UNL1       -0.0191
      8 C          -3.7337   -2.3578   -2.3035 C.3     1  UNL1       -0.0582
      9 C          -0.7976   -0.5727   -0.7271 C.ar    1  UNL1       -0.0153
     10 C          -1.0248   -0.1881    0.5905 C.ar    1  UNL1       -0.0535
     11 C          -0.1263   -0.5273    1.5852 C.ar    1  UNL1       -0.0611
     12 C           0.9998   -1.2686    1.2715 C.ar    1  UNL1       -0.0611
     13 C           1.2023   -1.7083   -0.0250 C.ar    1  UNL1       -0.0535
     14 C           0.3078   -1.3752   -1.0359 C.ar    1  UNL1       -0.0153
     15 C          -0.6602   -4.1183   -1.0854 C.3     1  UNL1       -0.0582
     16 C          -0.1999   -3.7771   -2.5014 C.3     1  UNL1       -0.0191
     17 C           0.9636   -4.6700   -2.9383 C.3     1  UNL1       -0.0457
     18 C           2.2567   -4.0111   -2.4771 C.3     1  UNL1       -0.0457
     19 C           2.1913   -2.5434   -2.9018 C.3     1  UNL1       -0.0191
     20 C           2.6489   -2.3517   -4.3398 C.3     1  UNL1       -0.0582
     21 H          -1.5709    2.3666   -0.0549 H       1  UNL1        0.0236
     22 H          -1.0949    2.9286   -1.6594 H       1  UNL1        0.0236
     23 H          -2.5820    3.5164   -0.9278 H       1  UNL1        0.0236
     24 H          -3.0196    1.8678   -2.6985 H       1  UNL1        0.0349
     25 H          -3.8389    1.0603    0.1217 H       1  UNL1        0.0271
     26 H          -4.7415    2.0225   -1.0470 H       1  UNL1        0.0271
     27 H          -5.4015   -0.4889   -0.9755 H       1  UNL1        0.0271
     28 H          -4.9078    0.1009   -2.5683 H       1  UNL1        0.0271
     29 H          -3.1671   -1.3362   -0.5201 H       1  UNL1        0.0349
     30 H          -2.8514   -2.9801   -2.4186 H       1  UNL1        0.0236
     31 H          -4.1318   -2.1563   -3.2943 H       1  UNL1        0.0236
     32 H          -4.4835   -2.9171   -1.7435 H       1  UNL1        0.0236
     33 H          -1.9074    0.3793    0.8452 H       1  UNL1        0.0624
     34 H          -0.3030   -0.2111    2.6032 H       1  UNL1        0.0618
     35 H           1.7136   -1.5213    2.0423 H       1  UNL1        0.0618
     36 H           2.0732   -2.3094   -0.2374 H       1  UNL1        0.0624
     37 H          -1.3956   -3.4039   -0.7199 H       1  UNL1        0.0236
     38 H           0.1744   -4.1272   -0.3880 H       1  UNL1        0.0236
     39 H          -1.1168   -5.1079   -1.0830 H       1  UNL1        0.0236
     40 H          -1.0436   -3.9101   -3.1877 H       1  UNL1        0.0349
     41 H           0.8577   -5.6730   -2.5204 H       1  UNL1        0.0271
     42 H           0.9694   -4.7583   -4.0250 H       1  UNL1        0.0271
     43 H           2.3426   -4.1018   -1.3923 H       1  UNL1        0.0271
     44 H           3.1281   -4.4985   -2.9197 H       1  UNL1        0.0271
     45 H           2.8154   -1.9170   -2.2534 H       1  UNL1        0.0349
     46 H           2.3663   -1.3517   -4.6735 H       1  UNL1        0.0236
     47 H           2.1589   -3.0678   -4.9933 H       1  UNL1        0.0236
     48 H           3.7284   -2.4738   -4.4304 H       1  UNL1        0.0236
@<TRIPOS>BOND
     1    47    20    1
     2    46    20    1
     3    48    20    1
     4    20    19    1
     5    42    17    1
     6    31     8    1
     7    40    16    1
     8    17    41    1
     9    17    16    1
    10    17    18    1
    11    44    18    1
    12    19     2    1
    13    19    18    1
    14    19    45    1
    15     2    16    1
    16     2    14    1
    17    24     4    1
    18    28     6    1
    19    16    15    1
    20    18    43    1
    21    30     8    1
    22     8    32    1
    23     8     7    1
    24     1     4    1
    25     1     7    1
    26     1     9    1
    27     4     3    1
    28     4     5    1
    29    22     3    1
    30     7     6    1
    31     7    29    1
    32     6    27    1
    33     6     5    1
    34    15    39    1
    35    15    37    1
    36    15    38    1
    37    26     5    1
    38     3    23    1
    39     3    21    1
    40    14     9   ar
    41    14    13   ar
    42     5    25    1
    43     9    10   ar
    44    36    13    1
    45    13    12   ar
    46    10    33    1
    47    10    11   ar
    48    12    11   ar
    49    12    35    1
    50    11    34    1
