@<TRIPOS>MOLECULE
1,2
 48 50 0 0 0
SMALL
GASTEIGER

@<TRIPOS>ATOM
      1 P          -1.8082    1.1365   -5.2846 P.3     1  UNL1       -0.0682
      2 P           0.8857    1.1204   -4.0002 P.3     1  UNL1       -0.0682
      3 C          -4.3094   -0.0689   -5.4732 C.3     1  UNL1       -0.0582
      4 C          -3.6598    1.3081   -5.5151 C.3     1  UNL1       -0.0191
      5 C          -3.8734    1.9872   -6.8682 C.3     1  UNL1       -0.0457
      6 C          -2.7995    1.4472   -7.8040 C.3     1  UNL1       -0.0457
      7 C          -1.4545    1.5822   -7.0881 C.3     1  UNL1       -0.0191
      8 C          -0.8421    2.9620   -7.3219 C.3     1  UNL1       -0.0582
      9 C          -1.3154    2.7116   -4.4929 C.ar    1  UNL1       -0.0153
     10 C          -2.0762    3.8736   -4.4501 C.ar    1  UNL1       -0.0535
     11 C          -1.5422    5.0428   -3.9363 C.ar    1  UNL1       -0.0611
     12 C          -0.2254    5.0739   -3.5103 C.ar    1  UNL1       -0.0611
     13 C           0.5421    3.9232   -3.5518 C.ar    1  UNL1       -0.0535
     14 C          -0.0038    2.7254   -4.0023 C.ar    1  UNL1       -0.0153
     15 C           1.4740    1.8184   -1.2229 C.3     1  UNL1       -0.0582
     16 C           2.0222    1.1851   -2.4917 C.3     1  UNL1       -0.0191
     17 C           3.3792    1.7595   -2.8981 C.3     1  UNL1       -0.0457
     18 C           3.6193    1.3497   -4.3407 C.3     1  UNL1       -0.0457
     19 C           2.3356    1.6617   -5.1064 C.3     1  UNL1       -0.0191
     20 C           2.3416    1.0677   -6.5010 C.3     1  UNL1       -0.0582
     21 H          -3.9815   -0.5913   -4.5771 H       1  UNL1        0.0236
     22 H          -4.0054   -0.6690   -6.3272 H       1  UNL1        0.0236
     23 H          -5.3963    0.0131   -5.4670 H       1  UNL1        0.0236
     24 H          -4.0731    1.9069   -4.6929 H       1  UNL1        0.0349
     25 H          -3.7685    3.0709   -6.7829 H       1  UNL1        0.0271
     26 H          -4.8752    1.7776   -7.2491 H       1  UNL1        0.0271
     27 H          -2.9938    0.3949   -8.0154 H       1  UNL1        0.0271
     28 H          -2.7896    1.9880   -8.7522 H       1  UNL1        0.0271
     29 H          -0.7606    0.8231   -7.4592 H       1  UNL1        0.0349
     30 H           0.0574    3.1078   -6.7267 H       1  UNL1        0.0236
     31 H          -1.5408    3.7578   -7.0732 H       1  UNL1        0.0236
     32 H          -0.5735    3.0610   -8.3735 H       1  UNL1        0.0236
     33 H          -3.0941    3.8775   -4.8117 H       1  UNL1        0.0624
     34 H          -2.1474    5.9367   -3.8904 H       1  UNL1        0.0618
     35 H           0.2042    5.9948   -3.1430 H       1  UNL1        0.0618
     36 H           1.5738    3.9664   -3.2360 H       1  UNL1        0.0624
     37 H           0.4790    1.4374   -1.0125 H       1  UNL1        0.0236
     38 H           2.1169    1.5678   -0.3788 H       1  UNL1        0.0236
     39 H           1.4207    2.9015   -1.2977 H       1  UNL1        0.0236
     40 H           2.1583    0.1120   -2.2854 H       1  UNL1        0.0349
     41 H           4.1652    1.3886   -2.2360 H       1  UNL1        0.0271
     42 H           3.3722    2.8488   -2.8181 H       1  UNL1        0.0271
     43 H           3.8365    0.2816   -4.3907 H       1  UNL1        0.0271
     44 H           4.4653    1.8861   -4.7766 H       1  UNL1        0.0271
     45 H           2.2421    2.7535   -5.1903 H       1  UNL1        0.0349
     46 H           2.4114   -0.0145   -6.4552 H       1  UNL1        0.0236
     47 H           1.4325    1.3298   -7.0342 H       1  UNL1        0.0236
     48 H           3.1936    1.4458   -7.0661 H       1  UNL1        0.0236
@<TRIPOS>BOND
     1    28     6    1
     2    32     8    1
     3    27     6    1
     4     6     7    1
     5     6     5    1
     6    29     7    1
     7     8     7    1
     8     8    31    1
     9     8    30    1
    10    26     5    1
    11     7     1    1
    12    48    20    1
    13    47    20    1
    14     5    25    1
    15     5     4    1
    16    20    46    1
    17    20    19    1
    18    22     3    1
    19     4     3    1
    20     4     1    1
    21     4    24    1
    22     3    23    1
    23     3    21    1
    24     1     9    1
    25    45    19    1
    26    19    18    1
    27    19     2    1
    28    33    10    1
    29    44    18    1
    30     9    10   ar
    31     9    14   ar
    32    10    11   ar
    33    43    18    1
    34    18    17    1
    35    14     2    1
    36    14    13   ar
    37     2    16    1
    38    11    34    1
    39    11    12   ar
    40    13    12   ar
    41    13    36    1
    42    12    35    1
    43    17    42    1
    44    17    16    1
    45    17    41    1
    46    16    40    1
    47    16    15    1
    48    39    15    1
    49    15    37    1
    50    15    38    1
