@<TRIPOS>MOLECULE
1,2
 88 92 0 0 0
SMALL
GASTEIGER

@<TRIPOS>ATOM
      1 P           8.6343    3.3167    3.2619 P.3     1  UNL1        0.0000
      2 P           9.1608    1.7399    6.3799 P.3     1  UNL1        0.0000
      3 SI          6.4552    2.6397    5.3394 Si      1  UNL1        0.0000
      4 N           7.5120    2.1831    6.6718 N.pl3   1  UNL1        0.0000
      5 C           9.2724    4.8034    2.4072 C.ar    1  UNL1        0.0000
      6 C           9.9516    4.5895    1.2086 C.ar    1  UNL1        0.0000
      7 H          10.0057    3.5861    0.8043 H       1  UNL1        0.0000
      8 C          10.5530    5.6394    0.5440 C.ar    1  UNL1        0.0000
      9 H          11.0780    5.4605   -0.3827 H       1  UNL1        0.0000
     10 C          10.4902    6.9195    1.0722 C.ar    1  UNL1        0.0000
     11 H          10.9653    7.7416    0.5577 H       1  UNL1        0.0000
     12 C           9.8237    7.1400    2.2643 C.ar    1  UNL1        0.0000
     13 H           9.7788    8.1354    2.6825 H       1  UNL1        0.0000
     14 C           9.2197    6.0888    2.9327 C.ar    1  UNL1        0.0000
     15 H           8.7151    6.2817    3.8685 H       1  UNL1        0.0000
     16 C           7.7100    2.6434    1.8300 C.ar    1  UNL1        0.0000
     17 C           6.7541    3.4052    1.1645 C.ar    1  UNL1        0.0000
     18 H           6.5290    4.4073    1.5032 H       1  UNL1        0.0000
     19 C           6.1047    2.8935    0.0570 C.ar    1  UNL1        0.0000
     20 H           5.3623    3.4894   -0.4540 H       1  UNL1        0.0000
     21 C           6.4112    1.6232   -0.4052 C.ar    1  UNL1        0.0000
     22 H           5.9038    1.2278   -1.2726 H       1  UNL1        0.0000
     23 C           7.3782    0.8690    0.2374 C.ar    1  UNL1        0.0000
     24 H           7.6316   -0.1146   -0.1296 H       1  UNL1        0.0000
     25 C           8.0266    1.3798    1.3483 C.ar    1  UNL1        0.0000
     26 H           8.7936    0.8032    1.8487 H       1  UNL1        0.0000
     27 C           7.3020    4.0108    4.3071 C.3     1  UNL1        0.0000
     28 H           6.5845    4.5569    3.6934 H       1  UNL1        0.0000
     29 H           7.8001    4.7163    4.9727 H       1  UNL1        0.0000
     30 C           4.8184    3.3299    6.0367 C.3     1  UNL1        0.0000
     31 H           4.0135    2.6295    5.8474 H       1  UNL1        0.0000
     32 H           4.5423    4.2625    5.5565 H       1  UNL1        0.0000
     33 H           4.8581    3.5027    7.1054 H       1  UNL1        0.0000
     34 C           5.9932    1.2199    4.1502 C.3     1  UNL1        0.0000
     35 H           6.8676    0.7747    3.6831 H       1  UNL1        0.0000
     36 H           5.3746    1.6176    3.3496 H       1  UNL1        0.0000
     37 H           5.4194    0.4352    4.6363 H       1  UNL1        0.0000
     38 C           9.9863    2.1218    7.9749 C.ar    1  UNL1        0.0000
     39 C          11.1362    2.9015    7.9776 C.ar    1  UNL1        0.0000
     40 H          11.4853    3.3422    7.0548 H       1  UNL1        0.0000
     41 C          11.8480    3.1079    9.1477 C.ar    1  UNL1        0.0000
     42 H          12.7456    3.7079    9.1294 H       1  UNL1        0.0000
     43 C          11.4096    2.5469   10.3347 C.ar    1  UNL1        0.0000
     44 H          11.9618    2.7088   11.2487 H       1  UNL1        0.0000
     45 C          10.2644    1.7664   10.3423 C.ar    1  UNL1        0.0000
     46 H           9.9205    1.3170   11.2624 H       1  UNL1        0.0000
     47 C           9.5669    1.5415    9.1710 C.ar    1  UNL1        0.0000
     48 H           8.6990    0.9010    9.1846 H       1  UNL1        0.0000
     49 C           9.2021   -0.0893    6.5660 C.ar    1  UNL1        0.0000
     50 C          10.2795   -0.7083    7.1974 C.ar    1  UNL1        0.0000
     51 H          11.0419   -0.1143    7.6810 H       1  UNL1        0.0000
     52 C          10.3926   -2.0865    7.2013 C.ar    1  UNL1        0.0000
     53 H          11.2339   -2.5501    7.6955 H       1  UNL1        0.0000
     54 C           9.4421   -2.8698    6.5685 C.ar    1  UNL1        0.0000
     55 H           9.5337   -3.9458    6.5748 H       1  UNL1        0.0000
     56 C           8.3869   -2.2636    5.9088 C.ar    1  UNL1        0.0000
     57 H           7.6545   -2.8648    5.3894 H       1  UNL1        0.0000
     58 C           8.2790   -0.8857    5.8966 C.ar    1  UNL1        0.0000
     59 H           7.4764   -0.4180    5.3503 H       1  UNL1        0.0000
     60 C           7.0513    2.4495    8.0029 C.ar    1  UNL1        0.0000
     61 C           6.2607    1.5059    8.6725 C.ar    1  UNL1        0.0000
     62 C           5.8202    1.7865    9.9593 C.ar    1  UNL1        0.0000
     63 H           5.2188    1.0599   10.4839 H       1  UNL1        0.0000
     64 C           6.1340    2.9790   10.5778 C.ar    1  UNL1        0.0000
     65 H           5.7832    3.1826   11.5786 H       1  UNL1        0.0000
     66 C           6.8895    3.9154    9.9019 C.ar    1  UNL1        0.0000
     67 H           7.1172    4.8549   10.3800 H       1  UNL1        0.0000
     68 C           7.3586    3.6720    8.6182 C.ar    1  UNL1        0.0000
     69 C           8.1414    4.7567    7.9165 C.3     1  UNL1        0.0000
     70 H           8.6691    4.3094    7.0640 H       1  UNL1        0.0000
     71 C           7.1817    5.8349    7.4015 C.3     1  UNL1        0.0000
     72 H           6.4347    5.4137    6.7351 H       1  UNL1        0.0000
     73 H           7.7367    6.6073    6.8720 H       1  UNL1        0.0000
     74 H           6.6637    6.3005    8.2376 H       1  UNL1        0.0000
     75 C           9.1863    5.4118    8.8236 C.3     1  UNL1        0.0000
     76 H           8.7239    6.1285    9.4984 H       1  UNL1        0.0000
     77 H           9.9152    5.9461    8.2184 H       1  UNL1        0.0000
     78 H           9.7103    4.6690    9.4172 H       1  UNL1        0.0000
     79 C           5.8635    0.1935    8.0411 C.3     1  UNL1        0.0000
     80 H           6.2600    0.1721    7.0264 H       1  UNL1        0.0000
     81 C           6.4503   -0.9963    8.8051 C.3     1  UNL1        0.0000
     82 H           7.5375   -0.9668    8.7964 H       1  UNL1        0.0000
     83 H           6.1393   -1.9271    8.3357 H       1  UNL1        0.0000
     84 H           6.1123   -1.0033    9.8387 H       1  UNL1        0.0000
     85 C           4.3405    0.0649    7.9575 C.3     1  UNL1        0.0000
     86 H           3.8981   -0.0091    8.9476 H       1  UNL1        0.0000
     87 H           4.0742   -0.8312    7.4008 H       1  UNL1        0.0000
     88 H           3.9116    0.9271    7.4541 H       1  UNL1        0.0000
@<TRIPOS>BOND
     1    22    21    1
     2    20    19    1
     3    21    19   ar
     4    21    23   ar
     5     9     8    1
     6    24    23    1
     7    19    17   ar
     8    23    25   ar
     9     8    10   ar
    10     8     6   ar
    11    11    10    1
    12     7     6    1
    13    10    12   ar
    14    17    18    1
    15    17    16   ar
    16     6     5   ar
    17    25    16   ar
    18    25    26    1
    19    16     1    1
    20    12    13    1
    21    12    14   ar
    22     5    14   ar
    23     5     1    1
    24    14    15    1
    25     1    27    1
    26    36    34    1
    27    35    34    1
    28    28    27    1
    29    34    37    1
    30    34     3    1
    31    27    29    1
    32    27     3    1
    33     3    30    1
    34     3     4    1
    35    59    58    1
    36    57    56    1
    37    32    30    1
    38    31    30    1
    39    58    56   ar
    40    58    49   ar
    41    56    54   ar
    42    30    33    1
    43     2    49    1
    44     2     4    1
    45     2    38    1
    46    49    50   ar
    47    54    55    1
    48    54    52   ar
    49     4    60    1
    50    72    71    1
    51    73    71    1
    52    80    79    1
    53    40    39    1
    54    70    69    1
    55    50    52   ar
    56    50    51    1
    57    52    53    1
    58    87    85    1
    59    71    69    1
    60    71    74    1
    61    88    85    1
    62    69    68    1
    63    69    75    1
    64    85    79    1
    65    85    86    1
    66    38    39   ar
    67    38    47   ar
    68    39    41   ar
    69    60    68   ar
    70    60    61   ar
    71    79    61    1
    72    79    81    1
    73    77    75    1
    74    83    81    1
    75    68    66   ar
    76    61    62   ar
    77    82    81    1
    78    81    84    1
    79    75    78    1
    80    75    76    1
    81    42    41    1
    82    41    43   ar
    83    47    48    1
    84    47    45   ar
    85    66    67    1
    86    66    64   ar
    87    62    63    1
    88    62    64   ar
    89    43    45   ar
    90    43    44    1
    91    45    46    1
    92    64    65    1
