@<TRIPOS>MOLECULE
1,2
 76 79 0 0 0
SMALL
GASTEIGER

@<TRIPOS>ATOM
      1 P          15.1871    5.0487   -4.8807 P.3     1  UNL1       -0.0992
      2 P          15.7908    3.7855   -7.5350 P.3     1  UNL1       -0.0992
      3 C          16.1400    6.5569   -4.3427 C.3     1  UNL1       -0.0202
      4 H          16.4790    6.4149   -3.3094 H       1  UNL1        0.0349
      5 C          15.2161    7.7689   -4.4120 C.3     1  UNL1       -0.0463
      6 H          14.3366    7.6120   -3.7909 H       1  UNL1        0.0271
      7 H          14.8740    7.8858   -5.4389 H       1  UNL1        0.0271
      8 C          15.9572    9.0225   -3.9577 C.3     1  UNL1       -0.0525
      9 H          15.2868    9.8808   -3.9739 H       1  UNL1        0.0265
     10 H          16.3068    8.8932   -2.9289 H       1  UNL1        0.0265
     11 C          17.1536    9.2683   -4.8689 C.3     1  UNL1       -0.0530
     12 H          16.8006    9.3922   -5.8933 H       1  UNL1        0.0265
     13 H          17.6813   10.1772   -4.5703 H       1  UNL1        0.0265
     14 C          18.0951    8.0719   -4.8098 C.3     1  UNL1       -0.0525
     15 H          18.4800    7.9680   -3.7909 H       1  UNL1        0.0265
     16 H          18.9489    8.2339   -5.4711 H       1  UNL1        0.0265
     17 C          17.3683    6.7916   -5.2204 C.3     1  UNL1       -0.0463
     18 H          17.0342    6.8675   -6.2527 H       1  UNL1        0.0271
     19 H          18.0660    5.9586   -5.1285 H       1  UNL1        0.0271
     20 C          14.1880    4.6073   -3.3508 C.3     1  UNL1       -0.0202
     21 H          13.4349    5.3935   -3.2694 H       1  UNL1        0.0349
     22 C          13.4533    3.2819   -3.5605 C.3     1  UNL1       -0.0463
     23 H          12.8824    3.3233   -4.4856 H       1  UNL1        0.0271
     24 H          14.1721    2.4649   -3.6397 H       1  UNL1        0.0271
     25 C          12.5257    2.9739   -2.3867 C.3     1  UNL1       -0.0525
     26 H          11.7556    3.7421   -2.3138 H       1  UNL1        0.0265
     27 H          12.0267    2.0178   -2.5549 H       1  UNL1        0.0265
     28 C          13.3128    2.9283   -1.0812 C.3     1  UNL1       -0.0530
     29 H          14.0397    2.1137   -1.1205 H       1  UNL1        0.0265
     30 H          12.6410    2.7348   -0.2424 H       1  UNL1        0.0265
     31 C          14.0428    4.2492   -0.8691 C.3     1  UNL1       -0.0525
     32 H          13.3116    5.0541   -0.7781 H       1  UNL1        0.0265
     33 H          14.6179    4.2131    0.0590 H       1  UNL1        0.0265
     34 C          14.9785    4.5499   -2.0406 C.3     1  UNL1       -0.0463
     35 H          15.7394    3.7695   -2.0967 H       1  UNL1        0.0271
     36 H          15.4764    5.4989   -1.8434 H       1  UNL1        0.0271
     37 C          16.9545    4.0627   -8.9733 C.3     1  UNL1       -0.0202
     38 H          17.6186    3.1892   -9.0176 H       1  UNL1        0.0349
     39 C          17.8287    5.3094   -8.8495 C.3     1  UNL1       -0.0463
     40 H          18.4564    5.2605   -7.9597 H       1  UNL1        0.0271
     41 H          17.1829    6.1774   -8.7587 H       1  UNL1        0.0271
     42 C          18.7357    5.4561  -10.0707 C.3     1  UNL1       -0.0525
     43 H          19.3359    6.3621   -9.9690 H       1  UNL1        0.0265
     44 H          19.4219    4.6060  -10.1260 H       1  UNL1        0.0265
     45 C          17.9124    5.5171  -11.3515 C.3     1  UNL1       -0.0530
     46 H          17.2616    6.3922  -11.3213 H       1  UNL1        0.0265
     47 H          18.5706    5.6094  -12.2185 H       1  UNL1        0.0265
     48 C          17.0526    4.2653  -11.4703 C.3     1  UNL1       -0.0525
     49 H          17.6998    3.3848  -11.5212 H       1  UNL1        0.0265
     50 H          16.4676    4.2993  -12.3898 H       1  UNL1        0.0265
     51 C          16.1332    4.1535  -10.2556 C.3     1  UNL1       -0.0463
     52 H          15.4931    5.0328  -10.1845 H       1  UNL1        0.0271
     53 H          15.4893    3.2781  -10.3576 H       1  UNL1        0.0271
     54 C          15.1674    2.0525   -7.8720 C.3     1  UNL1       -0.0202
     55 H          14.3135    2.2210   -8.5297 H       1  UNL1        0.0349
     56 C          14.6294    1.4528   -6.5748 C.3     1  UNL1       -0.0463
     57 H          13.9446    2.1687   -6.1292 H       1  UNL1        0.0271
     58 H          15.4540    1.2563   -5.8887 H       1  UNL1        0.0271
     59 C          13.9078    0.1344   -6.8406 C.3     1  UNL1       -0.0525
     60 H          13.5316   -0.2768   -5.9020 H       1  UNL1        0.0265
     61 H          13.0510    0.3162   -7.4898 H       1  UNL1        0.0265
     62 C          14.8577   -0.8610   -7.4989 C.3     1  UNL1       -0.0530
     63 H          15.6775   -1.0878   -6.8129 H       1  UNL1        0.0265
     64 H          14.3375   -1.7961   -7.7158 H       1  UNL1        0.0265
     65 C          15.4252   -0.2750   -8.7866 C.3     1  UNL1       -0.0525
     66 H          14.6137   -0.1232   -9.5009 H       1  UNL1        0.0265
     67 H          16.1319   -0.9778   -9.2344 H       1  UNL1        0.0265
     68 C          16.1281    1.0603   -8.5320 C.3     1  UNL1       -0.0463
     69 H          16.4928    1.4365   -9.4867 H       1  UNL1        0.0271
     70 H          16.9891    0.8871   -7.8823 H       1  UNL1        0.0271
     71 C          16.5060    3.7286   -4.8155 C.3     1  UNL1       -0.0279
     72 H          17.2922    4.0112   -4.1120 H       1  UNL1        0.0317
     73 H          16.0363    2.8207   -4.4431 H       1  UNL1        0.0317
     74 C          17.0719    3.4864   -6.2054 C.3     1  UNL1       -0.0279
     75 H          17.4760    2.4767   -6.3008 H       1  UNL1        0.0317
     76 H          17.8832    4.1849   -6.3951 H       1  UNL1        0.0317
@<TRIPOS>BOND
     1    50    48    1
     2    47    45    1
     3    49    48    1
     4    48    45    1
     5    48    51    1
     6    45    46    1
     7    45    42    1
     8    53    51    1
     9    51    52    1
    10    51    37    1
    11    44    42    1
    12    42    43    1
    13    42    39    1
    14    66    65    1
    15    69    68    1
    16    67    65    1
    17    38    37    1
    18    37    39    1
    19    37     2    1
    20    39    41    1
    21    39    40    1
    22    65    68    1
    23    65    62    1
    24    68    70    1
    25    68    54    1
    26    55    54    1
    27    54     2    1
    28    54    56    1
    29    64    62    1
    30     2    74    1
    31    62    59    1
    32    62    63    1
    33    61    59    1
    34    59    56    1
    35    59    60    1
    36    56    57    1
    37    56    58    1
    38    76    74    1
    39    75    74    1
    40    18    17    1
    41    74    71    1
    42    12    11    1
    43    16    14    1
    44     7     5    1
    45    17    19    1
    46    17    14    1
    47    17     3    1
    48     1    71    1
    49     1     3    1
    50     1    20    1
    51    11    14    1
    52    11    13    1
    53    11     8    1
    54    71    73    1
    55    71    72    1
    56    14    15    1
    57    23    22    1
    58     5     3    1
    59     5     8    1
    60     5     6    1
    61     3     4    1
    62     9     8    1
    63     8    10    1
    64    24    22    1
    65    22    20    1
    66    22    25    1
    67    20    21    1
    68    20    34    1
    69    27    25    1
    70    25    26    1
    71    25    28    1
    72    35    34    1
    73    34    36    1
    74    34    31    1
    75    29    28    1
    76    28    31    1
    77    28    30    1
    78    31    32    1
    79    31    33    1
