@<TRIPOS>MOLECULE
1,16
 42 44 0 0 0
SMALL
GASTEIGER

@<TRIPOS>ATOM
      1 P           2.6059    9.3336    0.8891 P.3     1  UNL1        0.0000
      2 C           1.9190    9.7881   -0.7385 C.ar    1  UNL1        0.0000
      3 C           1.5272    8.7499   -1.5763 C.ar    1  UNL1        0.0000
      4 H           1.6289    7.7292   -1.2277 H       1  UNL1        0.0000
      5 C           1.0236    9.0266   -2.8349 C.ar    1  UNL1        0.0000
      6 H           0.7181    8.2196   -3.4840 H       1  UNL1        0.0000
      7 C           0.9190   10.3400   -3.2625 C.ar    1  UNL1        0.0000
      8 H           0.5305   10.5583   -4.2462 H       1  UNL1        0.0000
      9 C           1.3178   11.3775   -2.4337 C.ar    1  UNL1        0.0000
     10 H           1.2412   12.4002   -2.7740 H       1  UNL1        0.0000
     11 C           1.8167   11.1058   -1.1738 C.ar    1  UNL1        0.0000
     12 H           2.1334   11.9157   -0.5295 H       1  UNL1        0.0000
     13 C           4.1078   10.4085    1.0645 C.3     1  UNL1        0.0000
     14 H           3.9290   11.4466    1.3604 H       1  UNL1        0.0000
     15 H           4.7141   10.3572    0.1542 H       1  UNL1        0.0000
     16 P           4.8187    9.2936    2.3659 P.3     1  UNL1        0.0000
     17 C           6.5972    9.6985    2.3788 C.ar    1  UNL1        0.0000
     18 C           7.0751   11.0039    2.3160 C.ar    1  UNL1        0.0000
     19 H           6.3816   11.8339    2.2778 H       1  UNL1        0.0000
     20 C           8.4372   11.2375    2.2940 C.ar    1  UNL1        0.0000
     21 H           8.8094   12.2505    2.2414 H       1  UNL1        0.0000
     22 C           9.3262   10.1742    2.3356 C.ar    1  UNL1        0.0000
     23 H          10.3893   10.3628    2.3172 H       1  UNL1        0.0000
     24 C           8.8545    8.8731    2.3936 C.ar    1  UNL1        0.0000
     25 H           9.5481    8.0460    2.4196 H       1  UNL1        0.0000
     26 C           7.4918    8.6344    2.4103 C.ar    1  UNL1        0.0000
     27 H           7.1022    7.6240    2.4425 H       1  UNL1        0.0000
     28 C           1.4927   10.2183    2.0466 C.3     1  UNL1        0.0000
     29 H           0.6090    9.5881    2.1727 H       1  UNL1        0.0000
     30 H           1.1705   11.1497    1.5728 H       1  UNL1        0.0000
     31 C           4.2041   10.1739    3.8519 C.3     1  UNL1        0.0000
     32 H           4.7873   11.0905    3.9768 H       1  UNL1        0.0000
     33 H           4.4147    9.5279    4.7076 H       1  UNL1        0.0000
     34 SI          2.3219   10.5609    3.7489 Si      1  UNL1        0.0000
     35 C           1.4021    9.6017    5.1076 C.3     1  UNL1        0.0000
     36 H           1.4701    8.5264    4.9793 H       1  UNL1        0.0000
     37 H           0.3498    9.8670    5.1159 H       1  UNL1        0.0000
     38 H           1.8063    9.8434    6.0853 H       1  UNL1        0.0000
     39 C           2.1623   12.4456    4.0350 C.3     1  UNL1        0.0000
     40 H           2.6738   13.0380    3.2815 H       1  UNL1        0.0000
     41 H           2.5734   12.7203    5.0005 H       1  UNL1        0.0000
     42 H           1.1195   12.7442    4.0325 H       1  UNL1        0.0000
@<TRIPOS>BOND
     1     8     7    1
     2     6     5    1
     3     7     5   ar
     4     7     9   ar
     5     5     3   ar
     6    10     9    1
     7     9    11   ar
     8     3     4    1
     9     3     2   ar
    10    11     2   ar
    11    11    12    1
    12     2     1    1
    13    15    13    1
    14     1    13    1
    15     1    28    1
    16    13    14    1
    17    13    16    1
    18    30    28    1
    19    28    29    1
    20    28    34    1
    21    21    20    1
    22    19    18    1
    23    20    18   ar
    24    20    22   ar
    25    18    17   ar
    26    23    22    1
    27    22    24   ar
    28    16    17    1
    29    16    31    1
    30    17    26   ar
    31    24    26   ar
    32    24    25    1
    33    26    27    1
    34    40    39    1
    35    34    31    1
    36    34    39    1
    37    34    35    1
    38    31    32    1
    39    31    33    1
    40    42    39    1
    41    39    41    1
    42    36    35    1
    43    35    37    1
    44    35    38    1
