@<TRIPOS>MOLECULE
1,16
 42 44 0 0 0
SMALL
GASTEIGER

@<TRIPOS>ATOM
      1 P           4.1741    4.5216    7.4013 P.3     1  UNL1        0.0000
      2 C           3.7909    6.2737    7.7321 C.ar    1  UNL1        0.0000
      3 C           2.7005    6.5430    8.5517 C.ar    1  UNL1        0.0000
      4 H           2.1378    5.7138    8.9632 H       1  UNL1        0.0000
      5 C           2.3444    7.8517    8.8245 C.ar    1  UNL1        0.0000
      6 H           1.4988    8.0597    9.4630 H       1  UNL1        0.0000
      7 C           3.0701    8.8937    8.2703 C.ar    1  UNL1        0.0000
      8 H           2.7905    9.9161    8.4773 H       1  UNL1        0.0000
      9 C           4.1513    8.6291    7.4443 C.ar    1  UNL1        0.0000
     10 H           4.7097    9.4448    7.0080 H       1  UNL1        0.0000
     11 C           4.5148    7.3231    7.1748 C.ar    1  UNL1        0.0000
     12 H           5.3563    7.1169    6.5262 H       1  UNL1        0.0000
     13 C           4.5876    4.4714    5.5937 C.3     1  UNL1        0.0000
     14 H           5.5948    4.7988    5.3184 H       1  UNL1        0.0000
     15 H           3.8267    5.0085    5.0180 H       1  UNL1        0.0000
     16 P           4.2704    2.6453    5.5178 P.3     1  UNL1        0.0000
     17 C           4.0186    2.3072    3.7429 C.ar    1  UNL1        0.0000
     18 C           4.8102    2.8725    2.7479 C.ar    1  UNL1        0.0000
     19 H           5.6264    3.5317    3.0135 H       1  UNL1        0.0000
     20 C           4.5470    2.5966    1.4194 C.ar    1  UNL1        0.0000
     21 H           5.1589    3.0379    0.6458 H       1  UNL1        0.0000
     22 C           3.4976    1.7573    1.0780 C.ar    1  UNL1        0.0000
     23 H           3.2967    1.5452    0.0384 H       1  UNL1        0.0000
     24 C           2.7038    1.1967    2.0652 C.ar    1  UNL1        0.0000
     25 H           1.8831    0.5483    1.7971 H       1  UNL1        0.0000
     26 C           2.9602    1.4748    3.3961 C.ar    1  UNL1        0.0000
     27 H           2.3438    1.0567    4.1828 H       1  UNL1        0.0000
     28 C           5.8727    4.3646    8.0737 C.3     1  UNL1        0.0000
     29 H           5.7728    4.2325    9.1536 H       1  UNL1        0.0000
     30 H           6.3987    5.3079    7.9016 H       1  UNL1        0.0000
     31 C           5.9850    2.0523    5.7850 C.3     1  UNL1        0.0000
     32 H           6.5578    2.2297    4.8704 H       1  UNL1        0.0000
     33 H           5.9216    0.9712    5.9309 H       1  UNL1        0.0000
     34 SI          6.8294    2.8851    7.3003 Si      1  UNL1        0.0000
     35 C           8.4733    3.6108    6.6449 C.3     1  UNL1        0.0000
     36 H           8.3324    4.3642    5.8749 H       1  UNL1        0.0000
     37 H           9.0943    2.8270    6.2250 H       1  UNL1        0.0000
     38 H           9.0353    4.0694    7.4514 H       1  UNL1        0.0000
     39 C           7.1691    1.5806    8.6402 C.3     1  UNL1        0.0000
     40 H           7.7723    0.7717    8.2408 H       1  UNL1        0.0000
     41 H           6.2598    1.1463    9.0421 H       1  UNL1        0.0000
     42 H           7.7189    2.0187    9.4670 H       1  UNL1        0.0000
@<TRIPOS>BOND
     1    23    22    1
     2    21    20    1
     3    22    20   ar
     4    22    24   ar
     5    20    18   ar
     6    25    24    1
     7    24    26   ar
     8    18    19    1
     9    18    17   ar
    10    26    17   ar
    11    26    27    1
    12    17    16    1
    13    32    31    1
    14    15    13    1
    15    14    13    1
    16    16    13    1
    17    16    31    1
    18    13     1    1
    19    31    33    1
    20    31    34    1
    21    36    35    1
    22    37    35    1
    23    12    11    1
    24    35    34    1
    25    35    38    1
    26    10     9    1
    27    11     9   ar
    28    11     2   ar
    29    34    28    1
    30    34    39    1
    31     1     2    1
    32     1    28    1
    33     9     7   ar
    34     2     3   ar
    35    30    28    1
    36    28    29    1
    37    40    39    1
    38     7     8    1
    39     7     5   ar
    40     3     5   ar
    41     3     4    1
    42    39    41    1
    43    39    42    1
    44     5     6    1
