@<TRIPOS>MOLECULE
1,13
 42 44 0 0 0
SMALL
GASTEIGER

@<TRIPOS>ATOM
      1 P           2.5957    5.0268    0.8682 P.3     1  UNL1        0.0000
      2 C           1.9235    5.4895   -0.7580 C.ar    1  UNL1        0.0000
      3 C           1.7635    6.8132   -1.1554 C.ar    1  UNL1        0.0000
      4 H           2.0253    7.6174   -0.4799 H       1  UNL1        0.0000
      5 C           1.2779    7.0978   -2.4175 C.ar    1  UNL1        0.0000
      6 H           1.1564    8.1252   -2.7294 H       1  UNL1        0.0000
      7 C           0.9498    6.0670   -3.2853 C.ar    1  UNL1        0.0000
      8 H           0.5711    6.2955   -4.2706 H       1  UNL1        0.0000
      9 C           1.1120    4.7481   -2.8946 C.ar    1  UNL1        0.0000
     10 H           0.8612    3.9467   -3.5736 H       1  UNL1        0.0000
     11 C           1.6024    4.4590   -1.6336 C.ar    1  UNL1        0.0000
     12 H           1.7466    3.4348   -1.3116 H       1  UNL1        0.0000
     13 P           4.8167    4.9829    2.3669 P.3     1  UNL1        0.0000
     14 C           6.5876    5.3989    2.3908 C.ar    1  UNL1        0.0000
     15 C           7.4932    4.3454    2.3494 C.ar    1  UNL1        0.0000
     16 H           7.1147    3.3308    2.3216 H       1  UNL1        0.0000
     17 C           8.8531    4.6002    2.3394 C.ar    1  UNL1        0.0000
     18 H           9.5560    3.7810    2.3092 H       1  UNL1        0.0000
     19 C           9.3095    5.9077    2.3621 C.ar    1  UNL1        0.0000
     20 H          10.3704    6.1094    2.3502 H       1  UNL1        0.0000
     21 C           8.4085    6.9614    2.3939 C.ar    1  UNL1        0.0000
     22 H           8.7693    7.9798    2.4042 H       1  UNL1        0.0000
     23 C           7.0495    6.7111    2.4090 C.ar    1  UNL1        0.0000
     24 H           6.3456    7.5331    2.4281 H       1  UNL1        0.0000
     25 C           4.0935    6.1003    1.0757 C.3     1  UNL1        0.0000
     26 H           4.7051    6.0509    0.1680 H       1  UNL1        0.0000
     27 H           3.9182    7.1400    1.3651 H       1  UNL1        0.0000
     28 C           1.4626    5.8435    2.0471 C.3     1  UNL1        0.0000
     29 H           0.6225    5.1611    2.1968 H       1  UNL1        0.0000
     30 H           1.0724    6.7508    1.5783 H       1  UNL1        0.0000
     31 C           4.1692    5.7869    3.8751 C.3     1  UNL1        0.0000
     32 H           4.7755    6.6731    4.0813 H       1  UNL1        0.0000
     33 H           4.3243    5.0819    4.6953 H       1  UNL1        0.0000
     34 SI          2.3105    6.2603    3.7233 Si      1  UNL1        0.0000
     35 C           2.2473    8.1666    3.8803 C.3     1  UNL1        0.0000
     36 H           2.7924    8.6825    3.0945 H       1  UNL1        0.0000
     37 H           2.6665    8.4832    4.8296 H       1  UNL1        0.0000
     38 H           1.2211    8.5172    3.8496 H       1  UNL1        0.0000
     39 C           1.3313    5.4661    5.1457 C.3     1  UNL1        0.0000
     40 H           1.3319    4.3823    5.1035 H       1  UNL1        0.0000
     41 H           0.2981    5.7969    5.1247 H       1  UNL1        0.0000
     42 H           1.7486    5.7596    6.1033 H       1  UNL1        0.0000
@<TRIPOS>BOND
     1     8     7    1
     2    10     9    1
     3     7     9   ar
     4     7     5   ar
     5     9    11   ar
     6     6     5    1
     7     5     3   ar
     8    11    12    1
     9    11     2   ar
    10     3     2   ar
    11     3     4    1
    12     2     1    1
    13    26    25    1
    14     1    25    1
    15     1    28    1
    16    25    27    1
    17    25    13    1
    18    30    28    1
    19    28    29    1
    20    28    34    1
    21    18    17    1
    22    16    15    1
    23    17    15   ar
    24    17    19   ar
    25    15    14   ar
    26    20    19    1
    27    19    21   ar
    28    13    14    1
    29    13    31    1
    30    14    23   ar
    31    21    22    1
    32    21    23   ar
    33    23    24    1
    34    36    35    1
    35    34    31    1
    36    34    35    1
    37    34    39    1
    38    38    35    1
    39    31    32    1
    40    31    33    1
    41    35    37    1
    42    40    39    1
    43    41    39    1
    44    39    42    1
