@<TRIPOS>MOLECULE
1,18
 46 46 0 0 0
SMALL
GASTEIGER

@<TRIPOS>ATOM
      1 P           2.5102    2.2153   11.3679 P.3     1  UNL1        0.0000
      2 C           1.4895    3.6726   10.7437 C.3     1  UNL1        0.0000
      3 C           0.8113    3.1999    9.4580 C.3     1  UNL1        0.0000
      4 H           1.5229    3.1214    8.6381 H       1  UNL1        0.0000
      5 H           0.0278    3.8959    9.1619 H       1  UNL1        0.0000
      6 H           0.3558    2.2208    9.6196 H       1  UNL1        0.0000
      7 C           2.3097    4.9382   10.5112 C.3     1  UNL1        0.0000
      8 H           3.0956    4.7833    9.7745 H       1  UNL1        0.0000
      9 H           2.7654    5.2829   11.4378 H       1  UNL1        0.0000
     10 H           1.6603    5.7303   10.1406 H       1  UNL1        0.0000
     11 C           0.4238    3.9271   11.8084 C.3     1  UNL1        0.0000
     12 H          -0.1762    3.0298   11.9628 H       1  UNL1        0.0000
     13 H          -0.2387    4.7346   11.4998 H       1  UNL1        0.0000
     14 H           0.8749    4.2075   12.7601 H       1  UNL1        0.0000
     15 C           3.6856    2.9157   12.6230 C.3     1  UNL1        0.0000
     16 H           4.5595    3.4438   12.2315 H       1  UNL1        0.0000
     17 H           3.1324    3.5396   13.3309 H       1  UNL1        0.0000
     18 P           3.9952    1.2491   13.3806 P.3     1  UNL1        0.0000
     19 C           4.7020    1.5832   15.0964 C.3     1  UNL1        0.0000
     20 C           3.5063    1.9218   15.9853 C.3     1  UNL1        0.0000
     21 H           3.0015    2.8246   15.6420 H       1  UNL1        0.0000
     22 H           3.8294    2.0873   17.0122 H       1  UNL1        0.0000
     23 H           2.7878    1.1016   15.9787 H       1  UNL1        0.0000
     24 C           5.7167    2.7226   15.1279 C.3     1  UNL1        0.0000
     25 H           6.5713    2.5233   14.4840 H       1  UNL1        0.0000
     26 H           6.0901    2.8500   16.1432 H       1  UNL1        0.0000
     27 H           5.2595    3.6605   14.8176 H       1  UNL1        0.0000
     28 C           5.3213    0.2677   15.5679 C.3     1  UNL1        0.0000
     29 H           6.2454    0.0494   15.0357 H       1  UNL1        0.0000
     30 H           4.6197   -0.5518   15.3993 H       1  UNL1        0.0000
     31 H           5.5451    0.3118   16.6327 H       1  UNL1        0.0000
     32 C           5.4707    0.7383   12.4209 C.3     1  UNL1        0.0000
     33 H           5.5838   -0.3356   12.5840 H       1  UNL1        0.0000
     34 H           6.3563    1.2345   12.8232 H       1  UNL1        0.0000
     35 C           3.6747    1.9074    9.9865 C.3     1  UNL1        0.0000
     36 H           3.8805    2.8460    9.4681 H       1  UNL1        0.0000
     37 H           3.1543    1.2460    9.2905 H       1  UNL1        0.0000
     38 SI          5.3236    1.1005   10.5429 Si      1  UNL1        0.0000
     39 C           6.7013    2.3663   10.1360 C.3     1  UNL1        0.0000
     40 H           6.5913    3.3066   10.6690 H       1  UNL1        0.0000
     41 H           6.7111    2.5920    9.0749 H       1  UNL1        0.0000
     42 H           7.6765    1.9617   10.3860 H       1  UNL1        0.0000
     43 C           5.6079   -0.5027    9.5616 C.3     1  UNL1        0.0000
     44 H           4.8474   -1.2500    9.7630 H       1  UNL1        0.0000
     45 H           6.5713   -0.9369    9.8076 H       1  UNL1        0.0000
     46 H           5.6026   -0.3049    8.4947 H       1  UNL1        0.0000
@<TRIPOS>BOND
     1    46    43    1
     2     4     3    1
     3    41    39    1
     4     5     3    1
     5    37    35    1
     6     3     6    1
     7     3     2    1
     8    36    35    1
     9    43    44    1
    10    43    45    1
    11    43    38    1
    12     8     7    1
    13    35    38    1
    14    35     1    1
    15    39    42    1
    16    39    38    1
    17    39    40    1
    18    10     7    1
    19     7     2    1
    20     7     9    1
    21    38    32    1
    22     2     1    1
    23     2    11    1
    24     1    15    1
    25    13    11    1
    26    11    12    1
    27    11    14    1
    28    16    15    1
    29    32    33    1
    30    32    34    1
    31    32    18    1
    32    15    17    1
    33    15    18    1
    34    18    19    1
    35    25    24    1
    36    27    24    1
    37    29    28    1
    38    19    24    1
    39    19    28    1
    40    19    20    1
    41    24    26    1
    42    30    28    1
    43    28    31    1
    44    21    20    1
    45    23    20    1
    46    20    22    1
