@<TRIPOS>MOLECULE
13,21
 28 28 0 0 0
SMALL
GASTEIGER

@<TRIPOS>ATOM
      1 SI          0.7843    6.8924    2.3769 Si      1  UNL1        0.0000
      2 C          -0.7514    7.7654    1.6751 C.3     1  UNL1        0.0000
      3 H          -0.9719    8.6637    2.2429 H       1  UNL1        0.0000
      4 H          -1.6362    7.1378    1.6944 H       1  UNL1        0.0000
      5 H          -0.5821    8.0651    0.6458 H       1  UNL1        0.0000
      6 C           2.2972    8.0603    2.3081 C.3     1  UNL1        0.0000
      7 H           2.4963    8.3667    1.2870 H       1  UNL1        0.0000
      8 H           3.2044    7.6055    2.6959 H       1  UNL1        0.0000
      9 H           2.1114    8.9606    2.8836 H       1  UNL1        0.0000
     10 C           0.5179    6.4979    4.2401 C.3     1  UNL1        0.0000
     11 H           1.3254    6.9231    4.8423 H       1  UNL1        0.0000
     12 H          -0.4211    6.9352    4.5857 H       1  UNL1        0.0000
     13 P           0.4284    4.7010    4.5870 P.3     1  UNL1        0.0000
     14 C           0.9440    4.6473    6.3532 C.3     1  UNL1        0.0000
     15 H           1.8952    5.1621    6.5006 H       1  UNL1        0.0000
     16 H           1.0370    3.6029    6.6531 H       1  UNL1        0.0000
     17 H           0.1741    5.1160    6.9667 H       1  UNL1        0.0000
     18 C           1.9520    4.1582    3.6862 C.3     1  UNL1        0.0000
     19 H           2.7510    4.9023    3.6048 H       1  UNL1        0.0000
     20 H           2.3301    3.2305    4.1264 H       1  UNL1        0.0000
     21 P           1.0357    3.7787    2.1229 P.3     1  UNL1        0.0000
     22 C           2.2184    2.7199    1.1910 C.3     1  UNL1        0.0000
     23 H           1.8499    2.5777    0.1748 H       1  UNL1        0.0000
     24 H           2.2684    1.7466    1.6804 H       1  UNL1        0.0000
     25 H           3.2114    3.1723    1.1619 H       1  UNL1        0.0000
     26 C           1.2437    5.3874    1.2711 C.3     1  UNL1        0.0000
     27 H           0.6034    5.3628    0.3867 H       1  UNL1        0.0000
     28 H           2.2798    5.4633    0.9304 H       1  UNL1        0.0000
@<TRIPOS>BOND
     1    23    22    1
     2    27    26    1
     3     5     2    1
     4    28    26    1
     5    25    22    1
     6    22    24    1
     7    22    21    1
     8    26    21    1
     9    26     1    1
    10     7     6    1
    11     2     4    1
    12     2     3    1
    13     2     1    1
    14    21    18    1
    15     6     1    1
    16     6     8    1
    17     6     9    1
    18     1    10    1
    19    19    18    1
    20    18    20    1
    21    18    13    1
    22    10    12    1
    23    10    13    1
    24    10    11    1
    25    13    14    1
    26    14    15    1
    27    14    16    1
    28    14    17    1
