@<TRIPOS>MOLECULE
1,2
 24 23 0 0 0
SMALL
GASTEIGER

@<TRIPOS>ATOM
      1 P           0.0392    2.3221   10.8927 P.3     1  UNL1       -0.1119
      2 P          -2.1937    4.1884   10.5587 P.3     1  UNL1       -0.1119
      3 C          -3.8117    4.0806    9.7007 C.3     1  UNL1       -0.0445
      4 H          -4.5901    4.2060   10.4517 H       1  UNL1        0.0277
      5 H          -3.9097    3.0864    9.2649 H       1  UNL1        0.0277
      6 H          -3.9105    4.8445    8.9282 H       1  UNL1        0.0277
      7 C          -2.1500    6.0011   10.8202 C.3     1  UNL1       -0.0445
      8 H          -1.1986    6.2685   11.2780 H       1  UNL1        0.0277
      9 H          -2.9563    6.2549   11.5065 H       1  UNL1        0.0277
     10 H          -2.2751    6.5457    9.8830 H       1  UNL1        0.0277
     11 C          -1.0396    4.0548    9.1154 C.3     1  UNL1       -0.0288
     12 H          -1.5638    4.2586    8.1757 H       1  UNL1        0.0316
     13 H          -0.2531    4.8050    9.2420 H       1  UNL1        0.0316
     14 C          -0.4420    2.6610    9.1456 C.3     1  UNL1       -0.0288
     15 H           0.4245    2.5669    8.4803 H       1  UNL1        0.0316
     16 H          -1.1971    1.9267    8.8544 H       1  UNL1        0.0316
     17 C           0.9030    0.7064   10.7048 C.3     1  UNL1       -0.0445
     18 H           0.1764   -0.1005   10.6704 H       1  UNL1        0.0277
     19 H           1.5457    0.5544   11.5704 H       1  UNL1        0.0277
     20 H           1.5161    0.6966    9.8027 H       1  UNL1        0.0277
     21 C           1.5491    3.3767   10.9314 C.3     1  UNL1       -0.0445
     22 H           1.2606    4.4219   11.0257 H       1  UNL1        0.0277
     23 H           2.1321    3.2343   10.0197 H       1  UNL1        0.0277
     24 H           2.1662    3.1060   11.7855 H       1  UNL1        0.0277
@<TRIPOS>BOND
     1    12    11    1
     2    15    14    1
     3    16    14    1
     4     6     3    1
     5    11    14    1
     6    11    13    1
     7    11     2    1
     8    14     1    1
     9     5     3    1
    10     3     4    1
    11     3     2    1
    12    20    17    1
    13    10     7    1
    14    23    21    1
    15     2     7    1
    16    18    17    1
    17    17     1    1
    18    17    19    1
    19     7     8    1
    20     7     9    1
    21     1    21    1
    22    21    22    1
    23    21    24    1
