@<TRIPOS>MOLECULE
1,30
 52 55 0 0 0
SMALL
GASTEIGER

@<TRIPOS>ATOM
      1 P           5.6798    5.0802   12.4933 P.3     1  UNL1       -0.0435
      2 C           7.1259    4.3926   13.3691 C.ar    1  UNL1       -0.0189
      3 C           8.3293    5.0555   13.5785 C.ar    1  UNL1       -0.0538
      4 H           8.5017    6.0282   13.1406 H       1  UNL1        0.0624
      5 C           9.3224    4.4660   14.3426 C.ar    1  UNL1       -0.0612
      6 H          10.2568    4.9861   14.4993 H       1  UNL1        0.0618
      7 C           9.1232    3.2174   14.9061 C.ar    1  UNL1       -0.0617
      8 H           9.9002    2.7635   15.5035 H       1  UNL1        0.0618
      9 C           7.9248    2.5499   14.7023 C.ar    1  UNL1       -0.0612
     10 H           7.7681    1.5741   15.1394 H       1  UNL1        0.0618
     11 C           6.9327    3.1372   13.9431 C.ar    1  UNL1       -0.0538
     12 H           5.9903    2.6294   13.7746 H       1  UNL1        0.0624
     13 C           5.4922    3.7976   11.2121 C.ar    1  UNL1       -0.0189
     14 C           4.2332    3.2696   10.9597 C.ar    1  UNL1       -0.0538
     15 H           3.3878    3.6481   11.5216 H       1  UNL1        0.0624
     16 C           4.0708    2.2944    9.9916 C.ar    1  UNL1       -0.0612
     17 H           3.0898    1.8868    9.7936 H       1  UNL1        0.0618
     18 C           5.1667    1.8408    9.2763 C.ar    1  UNL1       -0.0617
     19 H           5.0412    1.0807    8.5190 H       1  UNL1        0.0618
     20 C           6.4272    2.3575    9.5338 C.ar    1  UNL1       -0.0612
     21 H           7.2816    1.9974    8.9789 H       1  UNL1        0.0618
     22 C           6.5935    3.3302   10.5014 C.ar    1  UNL1       -0.0538
     23 H           7.5777    3.7256   10.7149 H       1  UNL1        0.0624
     24 C           6.3440    6.4804   11.4744 C.3     1  UNL1       -0.0199
     25 H           7.3429    6.2485   11.0921 H       1  UNL1        0.0323
     26 H           5.6482    6.5388   10.6288 H       1  UNL1        0.0323
     27 C           6.3187    7.7919   12.2549 C.3     1  UNL1       -0.0199
     28 H           6.2314    8.6389   11.5686 H       1  UNL1        0.0323
     29 H           7.2318    7.9162   12.8454 H       1  UNL1        0.0323
     30 P           4.8766    7.8265   13.4507 P.3     1  UNL1       -0.0435
     31 C           5.6669    8.4827   14.9574 C.ar    1  UNL1       -0.0189
     32 C           6.6686    7.6967   15.5243 C.ar    1  UNL1       -0.0538
     33 H           6.9669    6.7828   15.0232 H       1  UNL1        0.0624
     34 C           7.2558    8.0625   16.7188 C.ar    1  UNL1       -0.0612
     35 H           8.0361    7.4498   17.1475 H       1  UNL1        0.0618
     36 C           6.8325    9.2100   17.3729 C.ar    1  UNL1       -0.0617
     37 H           7.2870    9.4972   18.3097 H       1  UNL1        0.0618
     38 C           5.8152    9.9777   16.8318 C.ar    1  UNL1       -0.0612
     39 H           5.4730   10.8622   17.3497 H       1  UNL1        0.0618
     40 C           5.2269    9.6155   15.6317 C.ar    1  UNL1       -0.0538
     41 H           4.4263   10.2129   15.2186 H       1  UNL1        0.0624
     42 C           3.9299    9.2716   12.8692 C.ar    1  UNL1       -0.0189
     43 C           2.5503    9.1601   12.7565 C.ar    1  UNL1       -0.0538
     44 H           2.0850    8.2097   12.9860 H       1  UNL1        0.0624
     45 C           1.7961   10.2394   12.3305 C.ar    1  UNL1       -0.0612
     46 H           0.7236   10.1465   12.2373 H       1  UNL1        0.0618
     47 C           2.4177   11.4373   12.0195 C.ar    1  UNL1       -0.0617
     48 H           1.8319   12.2796   11.6814 H       1  UNL1        0.0618
     49 C           3.7933   11.5586   12.1446 C.ar    1  UNL1       -0.0612
     50 H           4.2757   12.4968   11.9104 H       1  UNL1        0.0618
     51 C           4.5493   10.4828   12.5712 C.ar    1  UNL1       -0.0538
     52 H           5.6207   10.5835   12.6866 H       1  UNL1        0.0624
@<TRIPOS>BOND
     1    19    18    1
     2    21    20    1
     3    18    20   ar
     4    18    16   ar
     5    20    22   ar
     6    17    16    1
     7    16    14   ar
     8    22    23    1
     9    22    13   ar
    10    26    24    1
    11    14    13   ar
    12    14    15    1
    13    25    24    1
    14    13     1    1
    15    24    27    1
    16    24     1    1
    17    28    27    1
    18    48    47    1
    19    50    49    1
    20    47    49   ar
    21    47    45   ar
    22    49    51   ar
    23    46    45    1
    24    27    29    1
    25    27    30    1
    26    45    43   ar
    27     1     2    1
    28    51    52    1
    29    51    42   ar
    30    43    42   ar
    31    43    44    1
    32    42    30    1
    33     4     3    1
    34     2     3   ar
    35     2    11   ar
    36    30    31    1
    37     3     5   ar
    38    12    11    1
    39    11     9   ar
    40     5     6    1
    41     5     7   ar
    42     9     7   ar
    43     9    10    1
    44     7     8    1
    45    31    32   ar
    46    31    40   ar
    47    33    32    1
    48    41    40    1
    49    32    34   ar
    50    40    38   ar
    51    34    35    1
    52    34    36   ar
    53    38    39    1
    54    38    36   ar
    55    36    37    1
