@<TRIPOS>MOLECULE
1,2
 52 55 0 0 0
SMALL
GASTEIGER

@<TRIPOS>ATOM
      1 P           0.5186    2.9368    6.9225 P.3     1  UNL1       -0.0435
      2 P           0.4583    0.4200    5.1895 P.3     1  UNL1       -0.0435
      3 C          -1.1423    2.2681    6.4493 C.3     1  UNL1       -0.0199
      4 C          -0.9604    1.6199    5.0847 C.3     1  UNL1       -0.0199
      5 C           0.4760    4.4068    5.8153 C.ar    1  UNL1       -0.0189
      6 C           1.3686    4.5377    4.7590 C.ar    1  UNL1       -0.0538
      7 C           1.2902    5.6229    3.9019 C.ar    1  UNL1       -0.0612
      8 C           0.3164    6.5869    4.0923 C.ar    1  UNL1       -0.0617
      9 C          -0.5792    6.4633    5.1440 C.ar    1  UNL1       -0.0612
     10 C          -0.5024    5.3820    6.0001 C.ar    1  UNL1       -0.0538
     11 C           0.1979    3.7792    8.5059 C.ar    1  UNL1       -0.0189
     12 C           0.8714    4.9667    8.7853 C.ar    1  UNL1       -0.0538
     13 C           0.6469    5.6362    9.9732 C.ar    1  UNL1       -0.0612
     14 C          -0.2400    5.1213   10.9042 C.ar    1  UNL1       -0.0617
     15 C          -0.8997    3.9335   10.6401 C.ar    1  UNL1       -0.0612
     16 C          -0.6864    3.2653    9.4478 C.ar    1  UNL1       -0.0538
     17 C           0.9398    0.2950    3.4325 C.ar    1  UNL1       -0.0189
     18 C           1.2689    1.4544    2.7354 C.ar    1  UNL1       -0.0538
     19 C           1.7076    1.3871    1.4271 C.ar    1  UNL1       -0.0612
     20 C           1.8383    0.1584    0.8005 C.ar    1  UNL1       -0.0617
     21 C           1.5241   -0.9998    1.4901 C.ar    1  UNL1       -0.0612
     22 C           1.0805   -0.9348    2.7983 C.ar    1  UNL1       -0.0538
     23 C          -0.4381   -1.1592    5.3887 C.ar    1  UNL1       -0.0189
     24 C          -0.0142   -2.0569    6.3565 C.ar    1  UNL1       -0.0538
     25 C          -0.6594   -3.2689    6.5303 C.ar    1  UNL1       -0.0612
     26 C          -1.7417   -3.5917    5.7303 C.ar    1  UNL1       -0.0617
     27 C          -2.1615   -2.7078    4.7472 C.ar    1  UNL1       -0.0612
     28 C          -1.5129   -1.5006    4.5699 C.ar    1  UNL1       -0.0538
     29 H          -1.8941    3.0634    6.4241 H       1  UNL1        0.0323
     30 H          -1.4309    1.5100    7.1841 H       1  UNL1        0.0323
     31 H          -0.7080    2.3841    4.3406 H       1  UNL1        0.0323
     32 H          -1.8707    1.1059    4.7637 H       1  UNL1        0.0323
     33 H           2.1357    3.7877    4.6138 H       1  UNL1        0.0624
     34 H           1.9945    5.7120    3.0872 H       1  UNL1        0.0618
     35 H           0.2538    7.4353    3.4266 H       1  UNL1        0.0618
     36 H          -1.3398    7.2156    5.2967 H       1  UNL1        0.0618
     37 H          -1.1963    5.2989    6.8263 H       1  UNL1        0.0624
     38 H           1.5651    5.3734    8.0612 H       1  UNL1        0.0624
     39 H           1.1667    6.5626   10.1732 H       1  UNL1        0.0618
     40 H          -0.4184    5.6462   11.8314 H       1  UNL1        0.0618
     41 H          -1.5926    3.5272   11.3628 H       1  UNL1        0.0618
     42 H          -1.2061    2.3407    9.2524 H       1  UNL1        0.0624
     43 H           1.1833    2.4159    3.2193 H       1  UNL1        0.0624
     44 H           1.9562    2.2953    0.8969 H       1  UNL1        0.0618
     45 H           2.1876    0.1048   -0.2203 H       1  UNL1        0.0618
     46 H           1.6251   -1.9616    1.0086 H       1  UNL1        0.0618
     47 H           0.8381   -1.8456    3.3258 H       1  UNL1        0.0624
     48 H           0.8270   -1.7862    6.9786 H       1  UNL1        0.0624
     49 H          -0.3160   -3.9577    7.2896 H       1  UNL1        0.0618
     50 H          -2.2555   -4.5324    5.8646 H       1  UNL1        0.0618
     51 H          -2.9968   -2.9662    4.1121 H       1  UNL1        0.0618
     52 H          -1.8285   -0.8334    3.7788 H       1  UNL1        0.0624
@<TRIPOS>BOND
     1    45    20    1
     2    20    19   ar
     3    20    21   ar
     4    44    19    1
     5    46    21    1
     6    19    18   ar
     7    21    22   ar
     8    18    43    1
     9    18    17   ar
    10    22    47    1
    11    22    17   ar
    12    34     7    1
    13    35     8    1
    14    17     2    1
    15    52    28    1
    16     7     8   ar
    17     7     6   ar
    18     8     9   ar
    19    51    27    1
    20    31     4    1
    21    28    27   ar
    22    28    23   ar
    23    33     6    1
    24    27    26   ar
    25     6     5   ar
    26    32     4    1
    27     4     2    1
    28     4     3    1
    29     9    36    1
    30     9    10   ar
    31     2    23    1
    32    23    24   ar
    33    26    50    1
    34    26    25   ar
    35     5    10   ar
    36     5     1    1
    37    10    37    1
    38    24    25   ar
    39    24    48    1
    40    29     3    1
    41     3     1    1
    42     3    30    1
    43    25    49    1
    44     1    11    1
    45    38    12    1
    46    11    12   ar
    47    11    16   ar
    48    12    13   ar
    49    42    16    1
    50    16    15   ar
    51    13    39    1
    52    13    14   ar
    53    15    14   ar
    54    15    41    1
    55    14    40    1
