@<TRIPOS>MOLECULE
1,2
 52 55 0 0 0
SMALL
GASTEIGER

@<TRIPOS>ATOM
      1 P           3.3510   -0.6444    6.6432 P.3     1  UNL1       -0.0435
      2 P           3.4107    1.8721    8.3766 P.3     1  UNL1       -0.0435
      3 C           5.0118    0.0243    7.1168 C.3     1  UNL1       -0.0199
      4 C           4.8297    0.6725    8.4813 C.3     1  UNL1       -0.0199
      5 C           3.3937   -2.1145    7.7504 C.ar    1  UNL1       -0.0189
      6 C           2.5011   -2.2453    8.8067 C.ar    1  UNL1       -0.0538
      7 C           2.5794   -3.3304    9.6639 C.ar    1  UNL1       -0.0612
      8 C           3.5530   -4.2945    9.4735 C.ar    1  UNL1       -0.0617
      9 C           4.4485   -4.1712    8.4217 C.ar    1  UNL1       -0.0612
     10 C           4.3719   -3.0899    7.5655 C.ar    1  UNL1       -0.0538
     11 C           3.6720   -1.4867    5.0598 C.ar    1  UNL1       -0.0189
     12 C           2.9978   -2.6737    4.7801 C.ar    1  UNL1       -0.0538
     13 C           3.2220   -3.3431    3.5920 C.ar    1  UNL1       -0.0612
     14 C           4.1094   -2.8286    2.6614 C.ar    1  UNL1       -0.0617
     15 C           4.7700   -1.6413    2.9259 C.ar    1  UNL1       -0.0612
     16 C           4.5569   -0.9733    4.1182 C.ar    1  UNL1       -0.0538
     17 C           2.9289    1.9966   10.1335 C.ar    1  UNL1       -0.0189
     18 C           2.6003    0.8370   10.8305 C.ar    1  UNL1       -0.0538
     19 C           2.1613    0.9040   12.1388 C.ar    1  UNL1       -0.0612
     20 C           2.0297    2.1326   12.7653 C.ar    1  UNL1       -0.0617
     21 C           2.3434    3.2910   12.0759 C.ar    1  UNL1       -0.0612
     22 C           2.7873    3.2263   10.7678 C.ar    1  UNL1       -0.0538
     23 C           4.3069    3.4514    8.1779 C.ar    1  UNL1       -0.0189
     24 C           3.8839    4.3488    7.2093 C.ar    1  UNL1       -0.0538
     25 C           4.5295    5.5606    7.0355 C.ar    1  UNL1       -0.0612
     26 C           5.6110    5.8837    7.8363 C.ar    1  UNL1       -0.0617
     27 C           6.0299    5.0003    8.8202 C.ar    1  UNL1       -0.0612
     28 C           5.3811    3.7932    8.9975 C.ar    1  UNL1       -0.0538
     29 H           5.7636   -0.7709    7.1420 H       1  UNL1        0.0323
     30 H           5.3004    0.7825    6.3820 H       1  UNL1        0.0323
     31 H           4.5775   -0.0918    9.2255 H       1  UNL1        0.0323
     32 H           5.7399    1.1867    8.8024 H       1  UNL1        0.0323
     33 H           1.7341   -1.4952    8.9519 H       1  UNL1        0.0624
     34 H           1.8752   -3.4193   10.4788 H       1  UNL1        0.0618
     35 H           3.6157   -5.1428   10.1393 H       1  UNL1        0.0618
     36 H           5.2090   -4.9236    8.2689 H       1  UNL1        0.0618
     37 H           5.0656   -3.0070    6.7391 H       1  UNL1        0.0624
     38 H           2.3037   -3.0800    5.5039 H       1  UNL1        0.0624
     39 H           2.7016   -4.2691    3.3917 H       1  UNL1        0.0618
     40 H           4.2876   -3.3534    1.7341 H       1  UNL1        0.0618
     41 H           5.4634   -1.2354    2.2034 H       1  UNL1        0.0618
     42 H           5.0773   -0.0491    4.3139 H       1  UNL1        0.0624
     43 H           2.6866   -0.1244   10.3467 H       1  UNL1        0.0624
     44 H           1.9129   -0.0043   12.6688 H       1  UNL1        0.0618
     45 H           1.6800    2.1860   13.7861 H       1  UNL1        0.0618
     46 H           2.2418    4.2528   12.5574 H       1  UNL1        0.0618
     47 H           3.0295    4.1372   10.2404 H       1  UNL1        0.0624
     48 H           3.0432    4.0779    6.5867 H       1  UNL1        0.0624
     49 H           4.1868    6.2491    6.2756 H       1  UNL1        0.0618
     50 H           6.1250    6.8243    7.7021 H       1  UNL1        0.0618
     51 H           6.8645    5.2589    9.4561 H       1  UNL1        0.0618
     52 H           5.6960    3.1262    9.7890 H       1  UNL1        0.0624
@<TRIPOS>BOND
     1    40    14    1
     2    41    15    1
     3    14    15   ar
     4    14    13   ar
     5    15    16   ar
     6    39    13    1
     7    13    12   ar
     8    16    42    1
     9    16    11   ar
    10    12    11   ar
    11    12    38    1
    12    11     1    1
    13    49    25    1
    14    30     3    1
    15    48    24    1
    16     1     3    1
    17     1     5    1
    18    37    10    1
    19    25    24   ar
    20    25    26   ar
    21     3    29    1
    22     3     4    1
    23    24    23   ar
    24    10     5   ar
    25    10     9   ar
    26    50    26    1
    27     5     6   ar
    28    26    27   ar
    29    23     2    1
    30    23    28   ar
    31    36     9    1
    32     2     4    1
    33     2    17    1
    34     9     8   ar
    35     4    32    1
    36     4    31    1
    37     6    33    1
    38     6     7   ar
    39    27    28   ar
    40    27    51    1
    41    28    52    1
    42     8     7   ar
    43     8    35    1
    44     7    34    1
    45    17    22   ar
    46    17    18   ar
    47    47    22    1
    48    43    18    1
    49    22    21   ar
    50    18    19   ar
    51    21    46    1
    52    21    20   ar
    53    19    44    1
    54    19    20   ar
    55    20    45    1
