@<TRIPOS>MOLECULE
1,2
 72 75 0 0 0
SMALL
GASTEIGER

@<TRIPOS>ATOM
      1 P          -0.6542   21.7930   13.1613 P.3     1  UNL1        0.0000
      2 P          -0.6355   19.3939   15.9378 P.3     1  UNL1        0.0000
      3 SI          1.2380   23.5569   14.9952 Si      1  UNL1        0.0000
      4 SI          1.2464   21.4792   17.4104 Si      1  UNL1        0.0000
      5 C           1.0650   22.2991   13.5566 C.3     1  UNL1        0.0000
      6 H           1.5149   22.6943   12.6428 H       1  UNL1        0.0000
      7 H           1.6114   21.3972   13.8340 H       1  UNL1        0.0000
      8 N           0.6997   22.8505   16.4907 N.3     1  UNL1        0.0000
      9 H          -0.1410   23.2708   16.8548 H       1  UNL1        0.0000
     10 C           1.0814   19.8712   16.3770 C.3     1  UNL1        0.0000
     11 H           1.6251   20.0182   15.4434 H       1  UNL1        0.0000
     12 H           1.5381   19.0278   16.9002 H       1  UNL1        0.0000
     13 C           0.2435   25.1551   14.7433 C.3     1  UNL1        0.0000
     14 H          -0.8102   25.0095   14.9544 H       1  UNL1        0.0000
     15 H           0.3235   25.5214   13.7250 H       1  UNL1        0.0000
     16 H           0.6090   25.9347   15.4039 H       1  UNL1        0.0000
     17 C           3.0970   23.9715   15.0751 C.3     1  UNL1        0.0000
     18 H           3.3275   24.5065   15.9890 H       1  UNL1        0.0000
     19 H           3.3944   24.6016   14.2429 H       1  UNL1        0.0000
     20 H           3.7193   23.0836   15.0512 H       1  UNL1        0.0000
     21 C           3.1050   21.6312   17.8054 C.3     1  UNL1        0.0000
     22 H           3.7247   21.5061   16.9244 H       1  UNL1        0.0000
     23 H           3.4146   20.8865   18.5319 H       1  UNL1        0.0000
     24 H           3.3257   22.6067   18.2230 H       1  UNL1        0.0000
     25 C           0.2535   21.4583   19.0292 C.3     1  UNL1        0.0000
     26 H           0.6178   22.2250   19.7052 H       1  UNL1        0.0000
     27 H           0.3360   20.5035   19.5382 H       1  UNL1        0.0000
     28 H          -0.8007   21.6440   18.8555 H       1  UNL1        0.0000
     29 C          -0.4216   20.7526   11.6800 C.ar    1  UNL1        0.0000
     30 C          -1.4622   20.7064   10.7536 C.ar    1  UNL1        0.0000
     31 H          -2.3177   21.3568   10.8864 H       1  UNL1        0.0000
     32 C          -1.4100   19.8360    9.6833 C.ar    1  UNL1        0.0000
     33 H          -2.2213   19.8104    8.9707 H       1  UNL1        0.0000
     34 C          -0.3256   18.9857    9.5321 C.ar    1  UNL1        0.0000
     35 H          -0.2898   18.2963    8.7017 H       1  UNL1        0.0000
     36 C           0.7056   19.0155   10.4539 C.ar    1  UNL1        0.0000
     37 H           1.5486   18.3483   10.3445 H       1  UNL1        0.0000
     38 C           0.6588   19.8938   11.5224 C.ar    1  UNL1        0.0000
     39 H           1.4698   19.9026   12.2370 H       1  UNL1        0.0000
     40 C          -1.2359   23.3303   12.3657 C.ar    1  UNL1        0.0000
     41 C          -0.6293   23.7968   11.2027 C.ar    1  UNL1        0.0000
     42 H           0.1738   23.2297   10.7503 H       1  UNL1        0.0000
     43 C          -1.0626   24.9676   10.6101 C.ar    1  UNL1        0.0000
     44 H          -0.5903   25.3193    9.7041 H       1  UNL1        0.0000
     45 C          -2.1048   25.6871   11.1731 C.ar    1  UNL1        0.0000
     46 H          -2.4441   26.6003   10.7068 H       1  UNL1        0.0000
     47 C          -2.7135   25.2294   12.3290 C.ar    1  UNL1        0.0000
     48 H          -3.5291   25.7850   12.7677 H       1  UNL1        0.0000
     49 C          -2.2809   24.0559   12.9219 C.ar    1  UNL1        0.0000
     50 H          -2.7593   23.6932   13.8224 H       1  UNL1        0.0000
     51 C          -1.2061   18.8219   17.5755 C.ar    1  UNL1        0.0000
     52 C          -2.2504   19.4705   18.2211 C.ar    1  UNL1        0.0000
     53 H          -2.7350   20.3088   17.7377 H       1  UNL1        0.0000
     54 C          -2.6746   19.0470   19.4686 C.ar    1  UNL1        0.0000
     55 H          -3.4896   19.5563   19.9614 H       1  UNL1        0.0000
     56 C          -2.0581   17.9696   20.0814 C.ar    1  UNL1        0.0000
     57 H          -2.3909   17.6353   21.0530 H       1  UNL1        0.0000
     58 C          -1.0164   17.3153   19.4431 C.ar    1  UNL1        0.0000
     59 H          -0.5379   16.4700   19.9164 H       1  UNL1        0.0000
     60 C          -0.5914   17.7391   18.1983 C.ar    1  UNL1        0.0000
     61 H           0.2113   17.2147   17.6963 H       1  UNL1        0.0000
     62 C          -0.3913   17.7804   15.1207 C.ar    1  UNL1        0.0000
     63 C          -1.4258   16.8501   15.2073 C.ar    1  UNL1        0.0000
     64 H          -2.2841   17.0703   15.8299 H       1  UNL1        0.0000
     65 C          -1.3642   15.6650   14.5019 C.ar    1  UNL1        0.0000
     66 H          -2.1709   14.9508   14.5785 H       1  UNL1        0.0000
     67 C          -0.2762   15.3991   13.6851 C.ar    1  UNL1        0.0000
     68 H          -0.2327   14.4772   13.1243 H       1  UNL1        0.0000
     69 C           0.7489   16.3223   13.5827 C.ar    1  UNL1        0.0000
     70 H           1.5950   16.1225   12.9407 H       1  UNL1        0.0000
     71 C           0.6927   17.5069   14.2961 C.ar    1  UNL1        0.0000
     72 H           1.4994   18.2202   14.2032 H       1  UNL1        0.0000
@<TRIPOS>BOND
     1    35    34    1
     2    33    32    1
     3    34    32   ar
     4    34    36   ar
     5    32    30   ar
     6    44    43    1
     7    37    36    1
     8    36    38   ar
     9    43    45   ar
    10    43    41   ar
    11    46    45    1
    12    42    41    1
    13    30    31    1
    14    30    29   ar
    15    45    47   ar
    16    41    40   ar
    17    38    29   ar
    18    38    39    1
    19    29     1    1
    20    47    48    1
    21    47    49   ar
    22    40    49   ar
    23    40     1    1
    24     6     5    1
    25    49    50    1
    26    70    69    1
    27    68    67    1
    28     1     5    1
    29     5     7    1
    30     5     3    1
    31    69    67   ar
    32    69    71   ar
    33    67    65   ar
    34    15    13    1
    35    72    71    1
    36    19    17    1
    37    71    62   ar
    38    65    66    1
    39    65    63   ar
    40    13    14    1
    41    13     3    1
    42    13    16    1
    43     3    17    1
    44     3     8    1
    45    20    17    1
    46    17    18    1
    47    62    63   ar
    48    62     2    1
    49    63    64    1
    50    11    10    1
    51     2    10    1
    52     2    51    1
    53    10    12    1
    54    10     4    1
    55     8     9    1
    56     8     4    1
    57    22    21    1
    58     4    21    1
    59     4    25    1
    60    51    60   ar
    61    51    52   ar
    62    61    60    1
    63    53    52    1
    64    21    24    1
    65    21    23    1
    66    60    58   ar
    67    52    54   ar
    68    28    25    1
    69    25    27    1
    70    25    26    1
    71    58    59    1
    72    58    56   ar
    73    54    55    1
    74    54    56   ar
    75    56    57    1
