@<TRIPOS>MOLECULE
1,2
 98 103 0 0 0
SMALL
GASTEIGER

@<TRIPOS>ATOM
      1 P           3.7850   -0.4750    6.1355 P.3     1  UNL1        0.0000
      2 P           3.8551   -1.8422    3.0292 P.3     1  UNL1        0.0000
      3 P           2.5231    4.8379    3.3419 P.3     1  UNL1        0.0000
      4 SI          4.3097    1.5178    5.1644 Si      1  UNL1        0.0000
      5 SI          4.2526    0.2285    2.1607 Si      1  UNL1        0.0000
      6 SI          4.1842    3.4493    2.6313 Si      1  UNL1        0.0000
      7 C           3.7632    1.6879    3.3196 C.3     1  UNL1        0.0000
      8 H           2.6713    1.6784    3.3468 H       1  UNL1        0.0000
      9 C           4.4693   -0.0798    7.7749 C.ar    1  UNL1        0.0000
     10 C           5.7422   -0.5284    8.1118 C.ar    1  UNL1        0.0000
     11 H           6.2963   -1.1414    7.4128 H       1  UNL1        0.0000
     12 C           6.2975   -0.2150    9.3390 C.ar    1  UNL1        0.0000
     13 H           7.2843   -0.5756    9.5892 H       1  UNL1        0.0000
     14 C           5.5858    0.5488   10.2487 C.ar    1  UNL1        0.0000
     15 H           6.0146    0.7861   11.2110 H       1  UNL1        0.0000
     16 C           4.3174    1.0007    9.9224 C.ar    1  UNL1        0.0000
     17 H           3.7558    1.5933   10.6303 H       1  UNL1        0.0000
     18 C           3.7639    0.6955    8.6934 C.ar    1  UNL1        0.0000
     19 H           2.7702    1.0454    8.4502 H       1  UNL1        0.0000
     20 C           6.2115    1.4772    5.3410 C.3     1  UNL1        0.0000
     21 H           6.5270    1.9851    6.2477 H       1  UNL1        0.0000
     22 H           6.7282    1.9320    4.5060 H       1  UNL1        0.0000
     23 H           6.5507    0.4478    5.4167 H       1  UNL1        0.0000
     24 C           3.5481    2.9355    6.1970 C.3     1  UNL1        0.0000
     25 H           4.0716    3.0503    7.1413 H       1  UNL1        0.0000
     26 H           2.5012    2.7553    6.4218 H       1  UNL1        0.0000
     27 H           3.6074    3.8784    5.6624 H       1  UNL1        0.0000
     28 C           2.0097   -0.4259    6.5116 C.ar    1  UNL1        0.0000
     29 C           1.5561   -1.2973    7.5027 C.ar    1  UNL1        0.0000
     30 H           2.2771   -1.8936    8.0520 H       1  UNL1        0.0000
     31 C           0.2090   -1.4016    7.7821 C.ar    1  UNL1        0.0000
     32 H          -0.1312   -2.0792    8.5512 H       1  UNL1        0.0000
     33 C          -0.7069   -0.6462    7.0650 C.ar    1  UNL1        0.0000
     34 H          -1.7628   -0.7365    7.2735 H       1  UNL1        0.0000
     35 C          -0.2652    0.2223    6.0836 C.ar    1  UNL1        0.0000
     36 H          -0.9723    0.8172    5.5250 H       1  UNL1        0.0000
     37 C           1.0869    0.3376    5.8092 C.ar    1  UNL1        0.0000
     38 H           1.4199    1.0301    5.0490 H       1  UNL1        0.0000
     39 C           6.1412    0.2395    1.8844 C.3     1  UNL1        0.0000
     40 H           6.6540   -0.1875    2.7417 H       1  UNL1        0.0000
     41 H           6.5249    1.2427    1.7341 H       1  UNL1        0.0000
     42 H           6.4094   -0.3562    1.0167 H       1  UNL1        0.0000
     43 C           3.3009    0.2777    0.4986 C.3     1  UNL1        0.0000
     44 H           2.2923   -0.1108    0.6075 H       1  UNL1        0.0000
     45 H           3.8105   -0.3339   -0.2401 H       1  UNL1        0.0000
     46 H           3.2279    1.2802    0.0985 H       1  UNL1        0.0000
     47 C           4.5993   -2.7765    1.6566 C.ar    1  UNL1        0.0000
     48 C           5.9151   -3.2118    1.7816 C.ar    1  UNL1        0.0000
     49 H           6.4531   -3.0245    2.7013 H       1  UNL1        0.0000
     50 C           6.5339   -3.8929    0.7498 C.ar    1  UNL1        0.0000
     51 H           7.5536   -4.2302    0.8643 H       1  UNL1        0.0000
     52 C           5.8442   -4.1514   -0.4230 C.ar    1  UNL1        0.0000
     53 H           6.3223   -4.6923   -1.2262 H       1  UNL1        0.0000
     54 C           4.5350   -3.7195   -0.5588 C.ar    1  UNL1        0.0000
     55 H           3.9910   -3.9216   -1.4705 H       1  UNL1        0.0000
     56 C           3.9172   -3.0308    0.4684 C.ar    1  UNL1        0.0000
     57 H           2.8925   -2.7057    0.3547 H       1  UNL1        0.0000
     58 C           5.7684    4.2046    3.3783 C.3     1  UNL1        0.0000
     59 H           5.7611    4.2012    4.4613 H       1  UNL1        0.0000
     60 H           5.8778    5.2352    3.0551 H       1  UNL1        0.0000
     61 H           6.6517    3.6723    3.0435 H       1  UNL1        0.0000
     62 C           4.4692    3.5423    0.7375 C.3     1  UNL1        0.0000
     63 H           3.5435    3.5264    0.1709 H       1  UNL1        0.0000
     64 H           5.1046    2.7417    0.3758 H       1  UNL1        0.0000
     65 H           4.9569    4.4841    0.5043 H       1  UNL1        0.0000
     66 C           2.0877   -2.1457    2.7571 C.ar    1  UNL1        0.0000
     67 C           1.6664   -3.4675    2.6096 C.ar    1  UNL1        0.0000
     68 H           2.4070   -4.2577    2.5554 H       1  UNL1        0.0000
     69 C           0.3211   -3.7694    2.5449 C.ar    1  UNL1        0.0000
     70 H           0.0052   -4.7957    2.4282 H       1  UNL1        0.0000
     71 C          -0.6236   -2.7594    2.6505 C.ar    1  UNL1        0.0000
     72 H          -1.6762   -2.9985    2.6158 H       1  UNL1        0.0000
     73 C          -0.2141   -1.4478    2.8110 C.ar    1  UNL1        0.0000
     74 H          -0.9441   -0.6576    2.9054 H       1  UNL1        0.0000
     75 C           1.1343   -1.1405    2.8588 C.ar    1  UNL1        0.0000
     76 H           1.4467   -0.1134    2.9820 H       1  UNL1        0.0000
     77 C           2.3582    5.8692    1.8484 C.ar    1  UNL1        0.0000
     78 C           1.2081    5.9416    1.0706 C.ar    1  UNL1        0.0000
     79 H           0.3522    5.3265    1.3077 H       1  UNL1        0.0000
     80 C           1.1503    6.8031   -0.0108 C.ar    1  UNL1        0.0000
     81 H           0.2525    6.8439   -0.6110 H       1  UNL1        0.0000
     82 C           2.2280    7.6131   -0.3223 C.ar    1  UNL1        0.0000
     83 H           2.1782    8.2831   -1.1677 H       1  UNL1        0.0000
     84 C           3.3670    7.5700    0.4668 C.ar    1  UNL1        0.0000
     85 H           4.2064    8.2119    0.2411 H       1  UNL1        0.0000
     86 C           3.4266    6.7126    1.5463 C.ar    1  UNL1        0.0000
     87 H           4.3061    6.6898    2.1748 H       1  UNL1        0.0000
     88 C           1.0472    3.7662    3.1835 C.ar    1  UNL1        0.0000
     89 C           0.8287    2.9174    2.1015 C.ar    1  UNL1        0.0000
     90 H           1.5652    2.8547    1.3135 H       1  UNL1        0.0000
     91 C          -0.3304    2.1681    2.0241 C.ar    1  UNL1        0.0000
     92 H          -0.4907    1.5142    1.1787 H       1  UNL1        0.0000
     93 C          -1.2894    2.2633    3.0206 C.ar    1  UNL1        0.0000
     94 H          -2.2038    1.6919    2.9476 H       1  UNL1        0.0000
     95 C          -1.0774    3.0989    4.1041 C.ar    1  UNL1        0.0000
     96 H          -1.8248    3.1831    4.8801 H       1  UNL1        0.0000
     97 C           0.0888    3.8397    4.1876 C.ar    1  UNL1        0.0000
     98 H           0.2608    4.4953    5.0297 H       1  UNL1        0.0000
@<TRIPOS>BOND
     1    55    54    1
     2    53    52    1
     3    83    82    1
     4    81    80    1
     5    54    52   ar
     6    54    56   ar
     7    52    50   ar
     8    82    80   ar
     9    82    84   ar
    10    45    43    1
    11    80    78   ar
    12    46    43    1
    13    63    62    1
    14    85    84    1
    15    57    56    1
    16    64    62    1
    17    84    86   ar
    18    56    47   ar
    19    43    44    1
    20    43     5    1
    21    65    62    1
    22    62     6    1
    23    50    51    1
    24    50    48   ar
    25    42    39    1
    26    78    79    1
    27    78    77   ar
    28    92    91    1
    29    90    89    1
    30    86    77   ar
    31    86    87    1
    32    47    48   ar
    33    47     2    1
    34    41    39    1
    35    48    49    1
    36    77     3    1
    37    39     5    1
    38    39    40    1
    39    91    89   ar
    40    91    93   ar
    41    89    88   ar
    42     5     2    1
    43     5     7    1
    44    70    69    1
    45    69    67   ar
    46    69    71   ar
    47    68    67    1
    48    67    66   ar
    49    72    71    1
    50     6     7    1
    51     6     3    1
    52     6    58    1
    53    71    73   ar
    54    66    75   ar
    55    66     2    1
    56    73    75   ar
    57    73    74    1
    58    75    76    1
    59    94    93    1
    60    93    95   ar
    61    61    58    1
    62    60    58    1
    63    88     3    1
    64    88    97   ar
    65     7     8    1
    66     7     4    1
    67    58    59    1
    68    95    97   ar
    69    95    96    1
    70    97    98    1
    71    22    20    1
    72    38    37    1
    73     4    20    1
    74     4     1    1
    75     4    24    1
    76    20    23    1
    77    20    21    1
    78    36    35    1
    79    27    24    1
    80    37    35   ar
    81    37    28   ar
    82    35    33   ar
    83     1    28    1
    84     1     9    1
    85    24    26    1
    86    24    25    1
    87    28    29   ar
    88    33    34    1
    89    33    31   ar
    90    11    10    1
    91    29    31   ar
    92    29    30    1
    93     9    10   ar
    94     9    18   ar
    95    31    32    1
    96    10    12   ar
    97    19    18    1
    98    18    16   ar
    99    12    13    1
   100    12    14   ar
   101    16    14   ar
   102    16    17    1
   103    14    15    1
