@<TRIPOS>MOLECULE
1,2
 51 53 0 0 0
SMALL
GASTEIGER

@<TRIPOS>ATOM
      1 P           6.3709    5.0988    9.6923 P.3     1  UNL1        0.0000
      2 P           4.1912    6.3806   10.7413 P.3     1  UNL1        0.0000
      3 SI          9.3471    4.3074    9.4223 Si      1  UNL1        0.0000
      4 O           6.2835    4.1641    8.4049 O.3     1  UNL1        0.0000
      5 H           5.5431    3.5315    8.5567 H       1  UNL1        0.0000
      6 C           5.3305    6.6079    9.2315 C.3     1  UNL1        0.0000
      7 C           6.0225    7.9062    9.0514 C.2     1  UNL1        0.0000
      8 C           7.3480    8.0540    9.2173 C.2     1  UNL1        0.0000
      9 H           7.7672    9.0442    9.0879 H       1  UNL1        0.0000
     10 C           8.3095    7.0011    9.4087 C.2     1  UNL1        0.0000
     11 H           9.3457    7.3193    9.3605 H       1  UNL1        0.0000
     12 C           8.0560    5.6877    9.5311 C.2     1  UNL1        0.0000
     13 C           5.1731    9.0633    8.6235 C.3     1  UNL1        0.0000
     14 H           5.7706    9.9654    8.5155 H       1  UNL1        0.0000
     15 H           4.3882    9.2557    9.3560 H       1  UNL1        0.0000
     16 H           4.7011    8.8448    7.6646 H       1  UNL1        0.0000
     17 C           2.4863    6.3591   10.0990 C.ar    1  UNL1        0.0000
     18 C           1.6436    5.4027   10.6568 C.ar    1  UNL1        0.0000
     19 H           2.0411    4.7364   11.4123 H       1  UNL1        0.0000
     20 C           0.3330    5.2919   10.2324 C.ar    1  UNL1        0.0000
     21 H          -0.3154    4.5439   10.6646 H       1  UNL1        0.0000
     22 C          -0.1427    6.1351    9.2417 C.ar    1  UNL1        0.0000
     23 H          -1.1644    6.0477    8.9019 H       1  UNL1        0.0000
     24 C           0.6935    7.0857    8.6781 C.ar    1  UNL1        0.0000
     25 H           0.3220    7.7384    7.9010 H       1  UNL1        0.0000
     26 C           2.0049    7.2011    9.1018 C.ar    1  UNL1        0.0000
     27 H           2.6517    7.9429    8.6579 H       1  UNL1        0.0000
     28 C           4.2916    7.9725   11.6106 C.ar    1  UNL1        0.0000
     29 C           3.1810    8.7362   11.9509 C.ar    1  UNL1        0.0000
     30 H           2.1919    8.4080   11.6621 H       1  UNL1        0.0000
     31 C           3.3491    9.9164   12.6546 C.ar    1  UNL1        0.0000
     32 H           2.4859   10.5107   12.9175 H       1  UNL1        0.0000
     33 C           4.6171   10.3370   13.0208 C.ar    1  UNL1        0.0000
     34 H           4.7416   11.2613   13.5654 H       1  UNL1        0.0000
     35 C           5.7248    9.5670   12.6988 C.ar    1  UNL1        0.0000
     36 H           6.7124    9.8889   12.9958 H       1  UNL1        0.0000
     37 C           5.5622    8.3823   12.0081 C.ar    1  UNL1        0.0000
     38 H           6.4093    7.7531   11.7655 H       1  UNL1        0.0000
     39 C          10.8565    4.7385   10.5121 C.3     1  UNL1        0.0000
     40 H          11.3164    5.6663   10.1886 H       1  UNL1        0.0000
     41 H          11.6064    3.9592   10.4288 H       1  UNL1        0.0000
     42 H          10.6079    4.8438   11.5628 H       1  UNL1        0.0000
     43 C           8.5559    2.6572    9.9464 C.3     1  UNL1        0.0000
     44 H           7.6239    2.8394   10.4797 H       1  UNL1        0.0000
     45 H           9.2066    2.0668   10.5846 H       1  UNL1        0.0000
     46 H           8.3126    2.0550    9.0767 H       1  UNL1        0.0000
     47 C           9.9069    4.2140    7.6000 C.3     1  UNL1        0.0000
     48 H           9.0625    4.0217    6.9454 H       1  UNL1        0.0000
     49 H          10.6327    3.4203    7.4540 H       1  UNL1        0.0000
     50 H          10.3664    5.1446    7.2813 H       1  UNL1        0.0000
     51 H           4.7069    6.3685    8.3529 H       1  UNL1        0.0000
@<TRIPOS>BOND
     1    48    47    1
     2    50    47    1
     3    49    47    1
     4    47     3    1
     5    16    13    1
     6    25    24    1
     7    51     6    1
     8     4     5    1
     9     4     1    1
    10    14    13    1
    11    13     7    1
    12    13    15    1
    13    27    26    1
    14    24    26   ar
    15    24    22   ar
    16    23    22    1
    17     7     8    2
    18     7     6    1
    19    46    43    1
    20     9     8    1
    21    26    17   ar
    22     8    10    1
    23     6     1    1
    24     6     2    1
    25    22    20   ar
    26    11    10    1
    27    10    12    2
    28     3    12    1
    29     3    43    1
    30     3    39    1
    31    12     1    1
    32    43    44    1
    33    43    45    1
    34    17    18   ar
    35    17     2    1
    36    40    39    1
    37    20    18   ar
    38    20    21    1
    39    41    39    1
    40    39    42    1
    41    18    19    1
    42     2    28    1
    43    28    29   ar
    44    28    37   ar
    45    30    29    1
    46    38    37    1
    47    29    31   ar
    48    37    35   ar
    49    31    32    1
    50    31    33   ar
    51    35    36    1
    52    35    33   ar
    53    33    34    1
