@<TRIPOS>MOLECULE
1,2
 59 60 0 0 0
SMALL
GASTEIGER

@<TRIPOS>ATOM
      1 P           5.1682    0.5099    3.6233 P.3     1  UNL1        0.0000
      2 P           5.6737    1.6765    6.6673 P.3     1  UNL1        0.0000
      3 SI          3.6105    1.8780    9.0278 Si      1  UNL1        0.0000
      4 SI          8.0033    0.4853    4.9671 Si      1  UNL1        0.0000
      5 SI          2.4701   -0.4413    2.3317 Si      1  UNL1        0.0000
      6 C           3.7481    1.8657   10.9333 C.3     1  UNL1        0.0000
      7 H           4.4707    1.1373   11.2855 H       1  UNL1        0.0000
      8 H           2.7886    1.6093   11.3686 H       1  UNL1        0.0000
      9 H           4.0308    2.8361   11.3276 H       1  UNL1        0.0000
     10 C           4.3675   -0.2416    2.2813 C.ar    1  UNL1        0.0000
     11 C           6.8544    0.1000    3.4882 C.ar    1  UNL1        0.0000
     12 C           7.7807    2.1595    8.8158 C.ar    1  UNL1        0.0000
     13 H           8.5227    2.3892    9.5697 H       1  UNL1        0.0000
     14 C           2.1248   -1.3836    3.9497 C.3     1  UNL1        0.0000
     15 H           2.6468   -2.3369    3.9780 H       1  UNL1        0.0000
     16 H           1.0652   -1.5769    4.0831 H       1  UNL1        0.0000
     17 H           2.4589   -0.7922    4.7977 H       1  UNL1        0.0000
     18 C           1.5446    1.2142    2.2009 C.3     1  UNL1        0.0000
     19 H           1.9255    1.9155    2.9354 H       1  UNL1        0.0000
     20 H           0.4890    1.0714    2.4102 H       1  UNL1        0.0000
     21 H           1.6318    1.6569    1.2124 H       1  UNL1        0.0000
     22 C           7.3251   -0.6134    2.3865 C.ar    1  UNL1        0.0000
     23 C           8.2345    1.6489    7.6024 C.ar    1  UNL1        0.0000
     24 C           7.3827    1.3930    6.5284 C.ar    1  UNL1        0.0000
     25 C           6.4998   -1.0139    1.3379 C.ar    1  UNL1        0.0000
     26 H           6.9678   -1.5191    0.5027 H       1  UNL1        0.0000
     27 C           8.4663   -1.2611    5.6485 C.3     1  UNL1        0.0000
     28 H           7.9425   -2.0470    5.1128 H       1  UNL1        0.0000
     29 H           8.2056   -1.3560    6.6985 H       1  UNL1        0.0000
     30 H           9.5300   -1.4596    5.5583 H       1  UNL1        0.0000
     31 C           6.4514    2.3083    9.1641 C.ar    1  UNL1        0.0000
     32 H           6.2393    2.6063   10.1829 H       1  UNL1        0.0000
     33 C           5.1256   -0.8791    1.3138 C.ar    1  UNL1        0.0000
     34 H           4.6008   -1.3151    0.4737 H       1  UNL1        0.0000
     35 C           5.3720    2.0951    8.3236 C.ar    1  UNL1        0.0000
     36 C           9.5392    1.4279    4.2812 C.3     1  UNL1        0.0000
     37 H           9.4777    1.5775    3.2091 H       1  UNL1        0.0000
     38 H          10.4464    0.8657    4.4754 H       1  UNL1        0.0000
     39 H           9.6656    2.4028    4.7412 H       1  UNL1        0.0000
     40 C           3.0939    0.1379    8.4491 C.3     1  UNL1        0.0000
     41 H           3.6460   -0.6392    8.9719 H       1  UNL1        0.0000
     42 H           3.2904    0.0305    7.3847 H       1  UNL1        0.0000
     43 H           2.0348   -0.0393    8.6040 H       1  UNL1        0.0000
     44 C           8.7769   -0.9758    2.2329 C.3     1  UNL1        0.0000
     45 H           9.2841   -1.0525    3.1855 H       1  UNL1        0.0000
     46 H           9.2850   -0.2203    1.6334 H       1  UNL1        0.0000
     47 H           8.8696   -1.9257    1.7100 H       1  UNL1        0.0000
     48 C           1.9379   -1.5235    0.8517 C.3     1  UNL1        0.0000
     49 H           2.1670   -1.0570   -0.1008 H       1  UNL1        0.0000
     50 H           0.8661   -1.6846    0.8826 H       1  UNL1        0.0000
     51 H           2.4132   -2.4982    0.8709 H       1  UNL1        0.0000
     52 C           2.3874    3.2589    8.5633 C.3     1  UNL1        0.0000
     53 H           1.4274    3.0764    9.0366 H       1  UNL1        0.0000
     54 H           2.2238    3.2753    7.4920 H       1  UNL1        0.0000
     55 H           2.7331    4.2385    8.8818 H       1  UNL1        0.0000
     56 C           9.7161    1.4166    7.5002 C.3     1  UNL1        0.0000
     57 H          10.1985    2.2727    7.0301 H       1  UNL1        0.0000
     58 H           9.9433    0.5353    6.9126 H       1  UNL1        0.0000
     59 H          10.1480    1.2966    8.4914 H       1  UNL1        0.0000
@<TRIPOS>BOND
     1    49    48    1
     2    34    33    1
     3    26    25    1
     4    48    51    1
     5    48    50    1
     6    48     5    1
     7    21    18    1
     8    33    25   ar
     9    33    10   ar
    10    25    22   ar
    11    46    44    1
    12    47    44    1
    13    18     5    1
    14    18    20    1
    15    18    19    1
    16    44    22    1
    17    44    45    1
    18    10     5    1
    19    10     1   ar
    20     5    14    1
    21    22    11   ar
    22    37    36    1
    23    11     1   ar
    24    11     4    1
    25    14    15    1
    26    14    16    1
    27    14    17    1
    28    36    38    1
    29    36    39    1
    30    36     4    1
    31     4    27    1
    32     4    24    1
    33    28    27    1
    34    30    27    1
    35    27    29    1
    36    24     2   ar
    37    24    23   ar
    38     2    35   ar
    39    58    56    1
    40    57    56    1
    41    42    40    1
    42    54    52    1
    43    56    23    1
    44    56    59    1
    45    23    12   ar
    46    35     3    1
    47    35    31   ar
    48    40    43    1
    49    40    41    1
    50    40     3    1
    51    52    55    1
    52    52     3    1
    53    52    53    1
    54    12    31   ar
    55    12    13    1
    56     3     6    1
    57    31    32    1
    58     6     7    1
    59     6     9    1
    60     6     8    1
