@<TRIPOS>MOLECULE
1,2
 59 60 0 0 0
SMALL
GASTEIGER

@<TRIPOS>ATOM
      1 P           5.6276    6.3091   16.8984 P.3     1  UNL1        0.0000
      2 P           6.0172    5.1369   13.8381 P.3     1  UNL1        0.0000
      3 SI          7.7761    6.5138   19.1842 Si      1  UNL1        0.0000
      4 SI          8.6642    4.1826   12.4453 Si      1  UNL1        0.0000
      5 SI          3.2341    5.1212   15.2872 Si      1  UNL1        0.0000
      6 C           3.9135    6.0326   16.8215 C.ar    1  UNL1        0.0000
      7 C           3.1016    6.2953   17.9244 C.ar    1  UNL1        0.0000
      8 C           3.6012    6.8034   19.1205 C.ar    1  UNL1        0.0000
      9 H           2.8881    7.0371   19.9007 H       1  UNL1        0.0000
     10 C           4.9429    6.9461   19.4208 C.ar    1  UNL1        0.0000
     11 H           5.1925    7.2429   20.4313 H       1  UNL1        0.0000
     12 C           5.9907    6.7293   18.5421 C.ar    1  UNL1        0.0000
     13 C           1.6158    6.0733   17.8733 C.3     1  UNL1        0.0000
     14 H           1.1249    6.9263   17.4065 H       1  UNL1        0.0000
     15 H           1.2150    5.9705   18.8794 H       1  UNL1        0.0000
     16 H           1.3635    5.1854   17.3059 H       1  UNL1        0.0000
     17 C           8.9800    7.8962   18.6757 C.3     1  UNL1        0.0000
     18 H           9.1137    7.9056   17.6001 H       1  UNL1        0.0000
     19 H           9.9535    7.7216   19.1238 H       1  UNL1        0.0000
     20 H           8.6387    8.8766   18.9966 H       1  UNL1        0.0000
     21 C           8.2760    4.7730   18.5932 C.3     1  UNL1        0.0000
     22 H           7.7475    3.9963   19.1404 H       1  UNL1        0.0000
     23 H           9.3410    4.6006   18.7080 H       1  UNL1        0.0000
     24 H           8.0393    4.6600   17.5375 H       1  UNL1        0.0000
     25 C           7.7058    6.5064   21.0936 C.3     1  UNL1        0.0000
     26 H           7.4339    7.4770   21.4951 H       1  UNL1        0.0000
     27 H           8.6811    6.2546   21.4952 H       1  UNL1        0.0000
     28 H           6.9989    5.7766   21.4732 H       1  UNL1        0.0000
     29 C           4.3269    4.7271   13.7685 C.ar    1  UNL1        0.0000
     30 C           3.8152    4.0086   12.6889 C.ar    1  UNL1        0.0000
     31 C           4.5999    3.6038   11.6112 C.ar    1  UNL1        0.0000
     32 H           4.1005    3.0944   10.7971 H       1  UNL1        0.0000
     33 C           5.9719    3.7400   11.5333 C.ar    1  UNL1        0.0000
     34 H           6.4643    3.3017   10.6750 H       1  UNL1        0.0000
     35 C           6.7662    4.3817   12.4686 C.ar    1  UNL1        0.0000
     36 C           2.3593    3.6429   12.5912 C.3     1  UNL1        0.0000
     37 H           2.2514    2.6778   12.0997 H       1  UNL1        0.0000
     38 H           1.8336    4.3806   11.9842 H       1  UNL1        0.0000
     39 H           1.8810    3.5947   13.5603 H       1  UNL1        0.0000
     40 C           9.1387    3.1022   10.9444 C.3     1  UNL1        0.0000
     41 H           8.6723    2.1238   10.9862 H       1  UNL1        0.0000
     42 H          10.2121    2.9495   10.9276 H       1  UNL1        0.0000
     43 H           8.8637    3.5653   10.0024 H       1  UNL1        0.0000
     44 C           9.0708    3.2391   14.0484 C.3     1  UNL1        0.0000
     45 H           8.7836    3.8369   14.9089 H       1  UNL1        0.0000
     46 H          10.1326    3.0313   14.1339 H       1  UNL1        0.0000
     47 H           8.5374    2.2932   14.1028 H       1  UNL1        0.0000
     48 C           9.5848    5.8378   12.2809 C.3     1  UNL1        0.0000
     49 H           9.4577    6.2830   11.2978 H       1  UNL1        0.0000
     50 H          10.6480    5.6938   12.4464 H       1  UNL1        0.0000
     51 H           9.2346    6.5374   13.0321 H       1  UNL1        0.0000
     52 C           1.6750    6.0623   14.6527 C.3     1  UNL1        0.0000
     53 H           1.5709    7.0436   15.1045 H       1  UNL1        0.0000
     54 H           0.7745    5.5065   14.8914 H       1  UNL1        0.0000
     55 H           1.6932    6.1975   13.5770 H       1  UNL1        0.0000
     56 C           2.7919    3.3793   15.9933 C.3     1  UNL1        0.0000
     57 H           3.0843    3.2906   17.0355 H       1  UNL1        0.0000
     58 H           3.2993    2.5902   15.4466 H       1  UNL1        0.0000
     59 H           1.7260    3.1802   15.9363 H       1  UNL1        0.0000
@<TRIPOS>BOND
     1    43    40    1
     2    34    33    1
     3    32    31    1
     4    42    40    1
     5    40    41    1
     6    40     4    1
     7    49    48    1
     8    33    31   ar
     9    33    35   ar
    10    31    30   ar
    11    38    36    1
    12    37    36    1
    13    48     4    1
    14    48    50    1
    15    48    51    1
    16     4    35    1
    17     4    44    1
    18    35     2   ar
    19    36    30    1
    20    36    39    1
    21    30    29   ar
    22    55    52    1
    23    29     2   ar
    24    29     5    1
    25    44    47    1
    26    44    46    1
    27    44    45    1
    28    52    54    1
    29    52    53    1
    30    52     5    1
    31     5    56    1
    32     5     6    1
    33    58    56    1
    34    59    56    1
    35    56    57    1
    36     6     1   ar
    37     6     7   ar
    38     1    12   ar
    39    16    13    1
    40    14    13    1
    41    24    21    1
    42    18    17    1
    43    13     7    1
    44    13    15    1
    45     7     8   ar
    46    12     3    1
    47    12    10   ar
    48    21    23    1
    49    21    22    1
    50    21     3    1
    51    17    20    1
    52    17    19    1
    53    17     3    1
    54     8    10   ar
    55     8     9    1
    56     3    25    1
    57    10    11    1
    58    25    28    1
    59    25    26    1
    60    25    27    1
