@<TRIPOS>MOLECULE
1,2
 52 55 0 0 0
SMALL
GASTEIGER

@<TRIPOS>ATOM
      1 P          -1.9768   -1.0040    2.8055 P.3     1  UNL1       -0.0435
      2 P           0.9626   -0.7883    2.9961 P.3     1  UNL1       -0.0435
      3 C          -1.0110   -1.7874    1.4103 C.3     1  UNL1       -0.0199
      4 H          -0.8325   -2.8352    1.6684 H       1  UNL1        0.0323
      5 H          -1.5779   -1.7524    0.4758 H       1  UNL1        0.0323
      6 C           0.3232   -1.0644    1.2773 C.3     1  UNL1       -0.0199
      7 H           0.1666   -0.0843    0.8217 H       1  UNL1        0.0323
      8 H           1.0391   -1.6383    0.6793 H       1  UNL1        0.0323
      9 C          -3.1095   -2.3716    3.2598 C.ar    1  UNL1       -0.0189
     10 C          -2.6279   -3.6555    3.5028 C.ar    1  UNL1       -0.0538
     11 H          -1.5846   -3.8826    3.3407 H       1  UNL1        0.0624
     12 C          -3.4723   -4.6544    3.9525 C.ar    1  UNL1       -0.0612
     13 H          -3.0830   -5.6475    4.1259 H       1  UNL1        0.0618
     14 C          -4.8101   -4.3837    4.1867 C.ar    1  UNL1       -0.0617
     15 H          -5.4685   -5.1635    4.5401 H       1  UNL1        0.0618
     16 C          -5.2966   -3.1054    3.9694 C.ar    1  UNL1       -0.0612
     17 H          -6.3377   -2.8840    4.1562 H       1  UNL1        0.0618
     18 C          -4.4537   -2.1074    3.5160 C.ar    1  UNL1       -0.0538
     19 H          -4.8428   -1.1134    3.3472 H       1  UNL1        0.0624
     20 C          -3.1579    0.0401    1.8762 C.ar    1  UNL1       -0.0189
     21 C          -3.3040    1.3656    2.2611 C.ar    1  UNL1       -0.0538
     22 H          -2.6938    1.7322    3.0714 H       1  UNL1        0.0624
     23 C          -4.1862    2.1959    1.5922 C.ar    1  UNL1       -0.0612
     24 H          -4.2914    3.2282    1.8950 H       1  UNL1        0.0618
     25 C          -4.9308    1.7038    0.5336 C.ar    1  UNL1       -0.0617
     26 H          -5.6167    2.3502    0.0052 H       1  UNL1        0.0618
     27 C          -4.8003    0.3768    0.1535 C.ar    1  UNL1       -0.0612
     28 H          -5.3888   -0.0097   -0.6664 H       1  UNL1        0.0618
     29 C          -3.9226   -0.4550    0.8234 C.ar    1  UNL1       -0.0538
     30 H          -3.8427   -1.4962    0.5388 H       1  UNL1        0.0624
     31 C           1.5916   -2.4874    3.2942 C.ar    1  UNL1       -0.0189
     32 C           2.7141   -3.0185    2.6690 C.ar    1  UNL1       -0.0538
     33 H           3.3029   -2.3997    2.0051 H       1  UNL1        0.0624
     34 C           3.0758   -4.3328    2.9036 C.ar    1  UNL1       -0.0612
     35 H           3.9483   -4.7455    2.4177 H       1  UNL1        0.0618
     36 C           2.3229   -5.1242    3.7578 C.ar    1  UNL1       -0.0617
     37 H           2.6119   -6.1497    3.9365 H       1  UNL1        0.0618
     38 C           1.2024   -4.6005    4.3813 C.ar    1  UNL1       -0.0612
     39 H           0.6138   -5.2161    5.0473 H       1  UNL1        0.0618
     40 C           0.8423   -3.2853    4.1479 C.ar    1  UNL1       -0.0538
     41 H          -0.0270   -2.8433    4.6166 H       1  UNL1        0.0624
     42 C           2.5308    0.0968    2.7486 C.ar    1  UNL1       -0.0189
     43 C           2.7470    0.9976    1.7125 C.ar    1  UNL1       -0.0538
     44 H           1.9913    1.1429    0.9568 H       1  UNL1        0.0624
     45 C           3.9256    1.7215    1.6523 C.ar    1  UNL1       -0.0612
     46 H           4.0832    2.4254    0.8475 H       1  UNL1        0.0618
     47 C           4.8957    1.5594    2.6268 C.ar    1  UNL1       -0.0617
     48 H           5.8087    2.1345    2.5821 H       1  UNL1        0.0618
     49 C           4.6913    0.6588    3.6605 C.ar    1  UNL1       -0.0612
     50 H           5.4482    0.5258    4.4206 H       1  UNL1        0.0618
     51 C           3.5155   -0.0642    3.7214 C.ar    1  UNL1       -0.0538
     52 H           3.3513   -0.7742    4.5211 H       1  UNL1        0.0624
@<TRIPOS>BOND
     1    28    27    1
     2    26    25    1
     3    27    25   ar
     4    27    29   ar
     5     5     3    1
     6    25    23   ar
     7    30    29    1
     8     8     6    1
     9     7     6    1
    10    29    20   ar
    11    46    45    1
    12    44    43    1
    13     6     3    1
    14     6     2    1
    15     3     4    1
    16     3     1    1
    17    23    24    1
    18    23    21   ar
    19    45    43   ar
    20    45    47   ar
    21    43    42   ar
    22    20    21   ar
    23    20     1    1
    24    33    32    1
    25    21    22    1
    26    35    34    1
    27    48    47    1
    28    47    49   ar
    29    32    34   ar
    30    32    31   ar
    31    42     2    1
    32    42    51   ar
    33     1     9    1
    34    34    36   ar
    35     2    31    1
    36     9    10   ar
    37     9    18   ar
    38    31    40   ar
    39    11    10    1
    40    19    18    1
    41    10    12   ar
    42    18    16   ar
    43    49    51   ar
    44    49    50    1
    45    51    52    1
    46    36    37    1
    47    36    38   ar
    48    12    13    1
    49    12    14   ar
    50    16    17    1
    51    16    14   ar
    52    40    38   ar
    53    40    41    1
    54    14    15    1
    55    38    39    1
