@<TRIPOS>MOLECULE
3,4,11,12,13
 35 37 0 0 0
SMALL
GASTEIGER

@<TRIPOS>ATOM
      1 SI          8.8859    2.3262    5.2550 Si      1  UNL1        0.0000
      2 SI         10.4656    5.7356    6.0984 Si      1  UNL1        0.0000
      3 C          10.3449    2.6975    6.4096 C.3     1  UNL1        0.0000
      4 C          10.9225    4.0060    6.7342 C.3     1  UNL1        0.0000
      5 C           7.3875    3.4248    5.7095 C.3     1  UNL1        0.0000
      6 C           9.3968    2.5059    3.4193 C.3     1  UNL1        0.0000
      7 C           8.3022    0.5235    5.4960 C.3     1  UNL1        0.0000
      8 C           9.1156    6.4405    7.2525 C.3     1  UNL1        0.0000
      9 C          12.0152    6.8490    6.2206 C.3     1  UNL1        0.0000
     10 C           9.9284    5.8394    4.2676 C.3     1  UNL1        0.0000
     11 B          11.9427    3.8934    7.9439 B       1  UNL1        0.0000
     12 B          11.9815    2.3008    8.4229 B       1  UNL1        0.0000
     13 B          10.9434    1.5673    7.3479 B       1  UNL1        0.0000
     14 B          10.3884    3.0722    8.0859 B       1  UNL1        0.0000
     15 H          12.4456    4.8596    8.3669 H       1  UNL1        0.0000
     16 H          10.5656    0.4674    7.2413 H       1  UNL1        0.0000
     17 H           9.4218    3.3391    8.6921 H       1  UNL1        0.0000
     18 H           7.5276    4.4676    5.4500 H       1  UNL1        0.0000
     19 H           7.1808    3.3740    6.7743 H       1  UNL1        0.0000
     20 H           6.4994    3.0763    5.1905 H       1  UNL1        0.0000
     21 H           9.6811    1.5415    3.0094 H       1  UNL1        0.0000
     22 H           8.5710    2.8771    2.8204 H       1  UNL1        0.0000
     23 H          10.2337    3.1803    3.2801 H       1  UNL1        0.0000
     24 H           9.0869   -0.1876    5.2595 H       1  UNL1        0.0000
     25 H           7.9895    0.3373    6.5184 H       1  UNL1        0.0000
     26 H           7.4574    0.3031    4.8492 H       1  UNL1        0.0000
     27 H           8.8299    7.4430    6.9486 H       1  UNL1        0.0000
     28 H           9.4800    6.4973    8.2736 H       1  UNL1        0.0000
     29 H           8.2178    5.8324    7.2626 H       1  UNL1        0.0000
     30 H          11.8553    7.7949    5.7112 H       1  UNL1        0.0000
     31 H          12.8819    6.3770    5.7688 H       1  UNL1        0.0000
     32 H          12.2688    7.0735    7.2508 H       1  UNL1        0.0000
     33 H           9.0509    5.2498    4.0351 H       1  UNL1        0.0000
     34 H           9.7013    6.8728    4.0219 H       1  UNL1        0.0000
     35 H          10.7259    5.5222    3.6031 H       1  UNL1        0.0000
@<TRIPOS>BOND
     1    22     6    1
     2    21     6    1
     3    23     6    1
     4     6     1    1
     5    35    10    1
     6    34    10    1
     7    33    10    1
     8    10     2    1
     9    26     7    1
    10    20     5    1
    11     1     7    1
    12     1     5    1
    13     1     3    1
    14    24     7    1
    15    18     5    1
    16     7    25    1
    17     5    19    1
    18    30     9    1
    19    31     9    1
    20     2     9    1
    21     2     4    1
    22     2     8    1
    23     9    32    1
    24     3     4    1
    25     3    13    1
    26     3    14    1
    27     4    11    1
    28     4    14    1
    29    27     8    1
    30    16    13    1
    31     8    29    1
    32     8    28    1
    33    13    12    2
    34    11    14    1
    35    11    15    1
    36    11    12    1
    37    14    17    1
