@<TRIPOS>MOLECULE
3,4,6,12,14
 31 35 0 0 0
SMALL
GASTEIGER

@<TRIPOS>ATOM
      1 SI          5.5412   30.1022    8.9839 Si      1  UNL1        0.0000
      2 H           4.6191   30.4369   10.1095 H       1  UNL1        0.0000
      3 C           5.1710   28.4829    8.0936 C.3     1  UNL1        0.0000
      4 C           6.1787   27.3090    8.2027 C.3     1  UNL1        0.0000
      5 H           7.0273   27.4531    8.8671 H       1  UNL1        0.0000
      6 B           3.6574   27.8769    7.7677 B       1  UNL1        0.0000
      7 H           2.7171   28.5181    8.1095 H       1  UNL1        0.0000
      8 B           4.6031   28.6365    6.4586 B       1  UNL1        0.0000
      9 H           4.2902   29.7096    6.0693 H       1  UNL1        0.0000
     10 B           6.2830   28.2813    6.7711 B       1  UNL1        0.0000
     11 H           7.1773   29.0527    6.6763 H       1  UNL1        0.0000
     12 B           5.5058   25.8070    7.9703 B       1  UNL1        0.0000
     13 H           6.0360   24.8529    8.4190 H       1  UNL1        0.0000
     14 B           3.7996   26.1159    7.6163 B       1  UNL1        0.0000
     15 H           2.9188   25.3365    7.7133 H       1  UNL1        0.0000
     16 B           3.7587   27.1396    6.1532 B       1  UNL1        0.0000
     17 H           2.8303   27.0932    5.4171 H       1  UNL1        0.0000
     18 B           5.4234   27.3671    5.5453 B       1  UNL1        0.0000
     19 H           5.6872   27.4858    4.3955 H       1  UNL1        0.0000
     20 B           6.4987   26.5592    6.6962 B       1  UNL1        0.0000
     21 H           7.5812   26.1226    6.4952 H       1  UNL1        0.0000
     22 B           4.9496   25.8204    6.2837 B       1  UNL1        0.0000
     23 H           4.8851   24.8305    5.6356 H       1  UNL1        0.0000
     24 C           7.3255   30.1741    9.6831 C.3     1  UNL1        0.0000
     25 H           8.0625   30.1150    8.8875 H       1  UNL1        0.0000
     26 H           7.5432   29.3771   10.3871 H       1  UNL1        0.0000
     27 H           7.4853   31.1140   10.2048 H       1  UNL1        0.0000
     28 C           5.3986   31.6467    7.8656 C.3     1  UNL1        0.0000
     29 H           5.6933   32.5479    8.3979 H       1  UNL1        0.0000
     30 H           4.3780   31.7859    7.5253 H       1  UNL1        0.0000
     31 H           6.0257   31.5614    6.9842 H       1  UNL1        0.0000
@<TRIPOS>BOND
     1    19    18    1
     2    17    16    1
     3    18    22    1
     4    23    22    1
     5     9     8    1
     6    16     8    1
     7    16     6    1
     8    22    20    1
     9    22    12    1
    10     8    10    1
    11     8     3    1
    12    21    20    1
    13    11    10    1
    14    20    10    1
    15    20     4    1
    16    10     3    1
    17    31    28    1
    18    30    28    1
    19    14    15    1
    20    14     6    1
    21    14    12    1
    22     6     3    1
    23     6     7    1
    24    28    29    1
    25    28     1    1
    26    12     4    1
    27    12    13    1
    28     3     4    1
    29     4     5    1
    30    25    24    1
    31     1    24    1
    32     1     2    1
    33    24    27    1
    34    24    26    1
    35     1     3    0
