@<TRIPOS>MOLECULE
1,3,5,11,13
 22 26 0 0 0
SMALL
GASTEIGER

@<TRIPOS>ATOM
      1 C           4.9870   27.6061   11.2841 C.3     1  UNL1        0.0000
      2 H           5.6505   28.4530   11.1360 H       1  UNL1        0.0000
      3 C           3.4968   27.8180   10.9350 C.3     1  UNL1        0.0000
      4 H           3.2051   28.7966   10.5674 H       1  UNL1        0.0000
      5 B           5.4665   26.0559   11.0426 B       1  UNL1        0.0000
      6 H           6.6072   25.8369   10.7996 H       1  UNL1        0.0000
      7 B           5.1994   26.6714   12.7028 B       1  UNL1        0.0000
      8 H           6.1427   26.8872   13.3879 H       1  UNL1        0.0000
      9 B           3.9228   27.8586   12.6126 B       1  UNL1        0.0000
     10 H           3.9524   28.9166   13.1433 H       1  UNL1        0.0000
     11 B           2.7655   26.4303   10.4145 B       1  UNL1        0.0000
     12 H           1.8026   26.4935    9.7364 H       1  UNL1        0.0000
     13 B           4.0240   25.1896   10.5055 B       1  UNL1        0.0000
     14 H           4.0193   24.1671    9.9179 H       1  UNL1        0.0000
     15 B           4.5498   25.1116   12.2215 B       1  UNL1        0.0000
     16 H           4.9584   24.0957   12.6759 H       1  UNL1        0.0000
     17 B           3.5569   26.2376   13.1925 B       1  UNL1        0.0000
     18 H           3.2643   26.0300   14.3222 H       1  UNL1        0.0000
     19 B           2.4701   27.0615   12.0659 B       1  UNL1        0.0000
     20 H           1.4173   27.5506   12.2988 H       1  UNL1        0.0000
     21 B           2.8276   25.3524   11.8225 B       1  UNL1        0.0000
     22 H           2.0126   24.5120   12.0053 H       1  UNL1        0.0000
@<TRIPOS>BOND
     1    12    11    1
     2    14    13    1
     3    11    13    1
     4    11     3    1
     5    11    21    1
     6    13     5    1
     7     4     3    1
     8     6     5    1
     9     3     1    1
    10     3    19    1
    11     5     1    1
    12     5    15    1
    13     2     1    1
    14     1     7    1
    15    21    22    1
    16    21    19    1
    17    21    15    1
    18    19    20    1
    19    19     9    1
    20    15    16    1
    21    15     7    1
    22     9     7    1
    23     9    10    1
    24     9    17    1
    25     7     8    1
    26    17    18    1
