@<TRIPOS>MOLECULE
1,2,3,4,5
 36 38 0 0 0
SMALL
GASTEIGER

@<TRIPOS>ATOM
      1 C          -0.5228    0.1631   -1.9222 C.3     1  UNL1        0.0000
      2 C           0.8724    0.6053   -1.9030 C.3     1  UNL1        0.0000
      3 B           1.8571   -0.5201   -1.4958 B       1  UNL1        0.0000
      4 B           0.9024   -1.8374   -1.2942 B       1  UNL1        0.0000
      5 B          -0.6530   -1.3143   -1.5132 B       1  UNL1        0.0000
      6 B           0.5906   -0.8817   -2.7156 B       1  UNL1        0.0000
      7 SI         -2.0066    1.0956   -2.6367 Si      1  UNL1        0.0000
      8 SI          1.6418    2.1998   -2.5836 Si      1  UNL1        0.0000
      9 H           3.0185   -0.3884   -1.5457 H       1  UNL1        0.0000
     10 H           1.2122   -2.9361   -1.0099 H       1  UNL1        0.0000
     11 H          -1.6593   -1.9094   -1.5116 H       1  UNL1        0.0000
     12 H           0.6376   -1.0082   -3.8807 H       1  UNL1        0.0000
     13 C          -3.5719   -0.0014   -2.5151 C.3     1  UNL1        0.0000
     14 C          -1.7124    1.3642   -4.5149 C.3     1  UNL1        0.0000
     15 C          -2.4835    2.7383   -1.7792 C.3     1  UNL1        0.0000
     16 C           3.1130    2.7052   -1.4729 C.3     1  UNL1        0.0000
     17 C           2.3377    1.7553   -4.3177 C.3     1  UNL1        0.0000
     18 C           0.5997    3.7903   -2.7959 C.3     1  UNL1        0.0000
     19 H          -4.4317    0.5090   -2.9401 H       1  UNL1        0.0000
     20 H          -3.8120   -0.2346   -1.4836 H       1  UNL1        0.0000
     21 H          -3.4547   -0.9393   -3.0467 H       1  UNL1        0.0000
     22 H          -2.5360    1.9128   -4.9635 H       1  UNL1        0.0000
     23 H          -1.6381    0.4111   -5.0295 H       1  UNL1        0.0000
     24 H          -0.8013    1.9146   -4.7196 H       1  UNL1        0.0000
     25 H          -2.7889    3.4808   -2.5099 H       1  UNL1        0.0000
     26 H          -1.6793    3.1608   -1.1939 H       1  UNL1        0.0000
     27 H          -3.3217    2.5832   -1.1088 H       1  UNL1        0.0000
     28 H           3.6116    3.5825   -1.8739 H       1  UNL1        0.0000
     29 H           3.8504    1.9155   -1.4001 H       1  UNL1        0.0000
     30 H           2.7882    2.9414   -0.4670 H       1  UNL1        0.0000
     31 H           2.8900    2.5862   -4.7475 H       1  UNL1        0.0000
     32 H           1.5529    1.4891   -5.0183 H       1  UNL1        0.0000
     33 H           3.0127    0.9084   -4.2543 H       1  UNL1        0.0000
     34 H           1.1807    4.5195   -3.3539 H       1  UNL1        0.0000
     35 H           0.3602    4.2409   -1.8397 H       1  UNL1        0.0000
     36 H          -0.3275    3.6362   -3.3314 H       1  UNL1        0.0000
@<TRIPOS>BOND
     1    23    14    1
     2    32    17    1
     3    22    14    1
     4    31    17    1
     5    24    14    1
     6    14     7    1
     7    17    33    1
     8    17     8    1
     9    12     6    1
    10    34    18    1
    11    36    18    1
    12    21    13    1
    13    19    13    1
    14    18     8    1
    15    18    35    1
    16     6     1    1
    17     6     2    1
    18     6     4    1
    19     7    13    1
    20     7     1    1
    21     7    15    1
    22     8     2    1
    23     8    16    1
    24    13    20    1
    25    25    15    1
    26     1     2    1
    27     1     5    1
    28     2     3    1
    29    28    16    1
    30    15    26    1
    31    15    27    1
    32     9     3    1
    33     5    11    1
    34     5     4    1
    35     3     4    1
    36    16    29    1
    37    16    30    1
    38     4    10    1
