@<TRIPOS>MOLECULE
1,2,3,4,5
 36 38 0 0 0
SMALL
GASTEIGER

@<TRIPOS>ATOM
      1 C           0.7763   -0.3860    2.0463 C.3     1  UNL1        0.0000
      2 C          -0.7030   -0.4451    1.8366 C.3     1  UNL1        0.0000
      3 B          -1.1908    0.7314    0.9767 B       1  UNL1        0.0000
      4 B           0.1663    1.6140    0.6047 B       1  UNL1        0.0000
      5 B           1.4397    0.8401    1.3087 B       1  UNL1        0.0000
      6 B          -0.0412    1.0832    2.2572 B       1  UNL1        0.0000
      7 SI          1.8712   -1.4596    3.1498 Si      1  UNL1        0.0000
      8 SI         -1.8730   -1.7764    2.4681 Si      1  UNL1        0.0000
      9 C           3.3158   -0.3996    3.8312 C.3     1  UNL1        0.0000
     10 C           1.1064   -2.2548    4.7155 C.3     1  UNL1        0.0000
     11 C           2.6081   -2.7923    1.9937 C.3     1  UNL1        0.0000
     12 C          -3.5295   -1.6406    1.5253 C.3     1  UNL1        0.0000
     13 C          -2.2776   -1.6140    4.3372 C.3     1  UNL1        0.0000
     14 C          -1.1650   -3.4869    1.9835 C.3     1  UNL1        0.0000
     15 H          -2.3165    0.9088    0.7285 H       1  UNL1        0.0000
     16 H           0.1799    2.6219    0.0152 H       1  UNL1        0.0000
     17 H           2.5608    1.1296    1.4506 H       1  UNL1        0.0000
     18 H          -0.1945    1.5875    3.3094 H       1  UNL1        0.0000
     19 H           3.8801   -0.9447    4.5824 H       1  UNL1        0.0000
     20 H           4.0076   -0.1202    3.0449 H       1  UNL1        0.0000
     21 H           2.9593    0.5165    4.2921 H       1  UNL1        0.0000
     22 H           1.8541   -2.8684    5.2109 H       1  UNL1        0.0000
     23 H           0.7894   -1.4993    5.4281 H       1  UNL1        0.0000
     24 H           0.2542   -2.8883    4.5063 H       1  UNL1        0.0000
     25 H           3.3476   -3.3913    2.5157 H       1  UNL1        0.0000
     26 H           1.8552   -3.4699    1.6077 H       1  UNL1        0.0000
     27 H           3.0966   -2.3327    1.1408 H       1  UNL1        0.0000
     28 H          -4.2091   -2.4347    1.8202 H       1  UNL1        0.0000
     29 H          -4.0299   -0.6977    1.7169 H       1  UNL1        0.0000
     30 H          -3.3764   -1.7220    0.4552 H       1  UNL1        0.0000
     31 H          -2.3324   -2.5848    4.8203 H       1  UNL1        0.0000
     32 H          -1.5374   -1.0250    4.8675 H       1  UNL1        0.0000
     33 H          -3.2382   -1.1274    4.4778 H       1  UNL1        0.0000
     34 H          -1.9132   -4.2594    2.1336 H       1  UNL1        0.0000
     35 H          -0.8889   -3.5004    0.9336 H       1  UNL1        0.0000
     36 H          -0.2920   -3.7694    2.5593 H       1  UNL1        0.0000
@<TRIPOS>BOND
     1    16     4    1
     2    30    12    1
     3     4     3    1
     4     4     5    1
     5     4     6    1
     6    15     3    1
     7    35    14    1
     8     3     2    1
     9    27    11    1
    10     5    17    1
    11     5     1    1
    12    12    29    1
    13    12    28    1
    14    12     8    1
    15    26    11    1
    16     2     1    1
    17     2     6    1
    18     2     8    1
    19    14    34    1
    20    14     8    1
    21    14    36    1
    22    11    25    1
    23    11     7    1
    24     1     6    1
    25     1     7    1
    26     6    18    1
    27     8    13    1
    28    20     9    1
    29     7     9    1
    30     7    10    1
    31     9    21    1
    32     9    19    1
    33    13    33    1
    34    13    31    1
    35    13    32    1
    36    24    10    1
    37    10    22    1
    38    10    23    1
