@<TRIPOS>MOLECULE
3,4,5,6,7
 36 38 0 0 0
SMALL
GASTEIGER

@<TRIPOS>ATOM
      1 SI          7.7675    0.5902   12.6197 Si      1  UNL1        0.0000
      2 SI          9.6625    3.6854   13.4591 Si      1  UNL1        0.0000
      3 C           7.6162    1.5758   14.1897 C.3     1  UNL1        0.0000
      4 C           8.3141    2.8773   14.4753 C.3     1  UNL1        0.0000
      5 B           8.0174    3.3410   15.9444 B       1  UNL1        0.0000
      6 B           7.0882    2.1886   16.6258 B       1  UNL1        0.0000
      7 B           6.8310    1.0756   15.4609 B       1  UNL1        0.0000
      8 B           8.5222    1.6410   15.6245 B       1  UNL1        0.0000
      9 C           6.7827   -1.0559   12.7470 C.3     1  UNL1        0.0000
     10 C           6.8990    1.6249   11.2544 C.3     1  UNL1        0.0000
     11 C           9.4992    0.0228   11.9883 C.3     1  UNL1        0.0000
     12 C          11.3896    2.8633   13.7153 C.3     1  UNL1        0.0000
     13 C           9.4476    3.8539   11.5600 C.3     1  UNL1        0.0000
     14 C           9.9400    5.5016   14.0424 C.3     1  UNL1        0.0000
     15 H           8.7013    4.2130   16.3849 H       1  UNL1        0.0000
     16 H           6.8870    2.0412   17.8014 H       1  UNL1        0.0000
     17 H           6.4254   -0.0381   15.4657 H       1  UNL1        0.0000
     18 H           9.5410    1.0727   15.7802 H       1  UNL1        0.0000
     19 H           6.7519   -1.5718   11.7907 H       1  UNL1        0.0000
     20 H           5.7603   -0.8656   13.0559 H       1  UNL1        0.0000
     21 H           7.2245   -1.7327   13.4708 H       1  UNL1        0.0000
     22 H           6.5597    2.5821   11.6576 H       1  UNL1        0.0000
     23 H           6.0270    1.1010   10.8785 H       1  UNL1        0.0000
     24 H           7.5400    1.8304   10.4030 H       1  UNL1        0.0000
     25 H          10.1334    0.8617   11.7255 H       1  UNL1        0.0000
     26 H           9.4078   -0.6087   11.1078 H       1  UNL1        0.0000
     27 H          10.0170   -0.5520   12.7506 H       1  UNL1        0.0000
     28 H          11.7132    2.9666   14.7460 H       1  UNL1        0.0000
     29 H          12.1487    3.3156   13.0829 H       1  UNL1        0.0000
     30 H          11.3631    1.8029   13.4927 H       1  UNL1        0.0000
     31 H           9.5206    2.9043   11.0437 H       1  UNL1        0.0000
     32 H          10.2197    4.5048   11.1575 H       1  UNL1        0.0000
     33 H           8.4890    4.2973   11.3183 H       1  UNL1        0.0000
     34 H          10.2764    5.5505   15.0728 H       1  UNL1        0.0000
     35 H           9.0213    6.0715   13.9591 H       1  UNL1        0.0000
     36 H          10.6904    5.9966   13.4314 H       1  UNL1        0.0000
@<TRIPOS>BOND
     1    24    10    1
     2    23    10    1
     3    31    13    1
     4    26    11    1
     5    32    13    1
     6    10    22    1
     7    10     1    1
     8    33    13    1
     9    13     2    1
    10    25    11    1
    11    19     9    1
    12    11     1    1
    13    11    27    1
    14     1     9    1
    15     1     3    1
    16     9    20    1
    17     9    21    1
    18    29    12    1
    19    36    14    1
    20     2    12    1
    21     2    14    1
    22     2     4    1
    23    30    12    1
    24    12    28    1
    25    35    14    1
    26    14    34    1
    27     3     4    1
    28     3     7    1
    29     3     8    1
    30     4     8    1
    31     4     5    1
    32     7    17    1
    33     7     8    1
    34     7     6    1
    35     8    18    1
    36     5    15    1
    37     5     6    2
    38     6    16    1
