@<TRIPOS>MOLECULE
3,4,5,6,7
 36 38 0 0 0
SMALL
GASTEIGER

@<TRIPOS>ATOM
      1 SI          2.8707    6.0497   14.6755 Si      1  UNL1        0.0000
      2 SI          3.2196    4.0504   11.6315 Si      1  UNL1        0.0000
      3 C           3.5962    4.3264   14.6002 C.3     1  UNL1        0.0000
      4 C           3.7776    3.5171   13.3423 C.3     1  UNL1        0.0000
      5 B           4.0947    2.0181   13.6830 B       1  UNL1        0.0000
      6 B           3.9659    1.8859   15.3158 B       1  UNL1        0.0000
      7 B           3.7464    3.4070   15.8747 B       1  UNL1        0.0000
      8 B           2.7135    2.8681   14.5045 B       1  UNL1        0.0000
      9 C           2.5159    6.5855   16.4987 C.3     1  UNL1        0.0000
     10 C           3.9513    7.4880   13.9802 C.3     1  UNL1        0.0000
     11 C           1.1236    6.3216   13.9011 C.3     1  UNL1        0.0000
     12 C           1.3280    3.7827   11.3437 C.3     1  UNL1        0.0000
     13 C           3.9544    2.9844   10.2070 C.3     1  UNL1        0.0000
     14 C           3.6251    5.8324   11.0477 C.3     1  UNL1        0.0000
     15 H           4.0685    1.2204   12.7954 H       1  UNL1        0.0000
     16 H           3.8415    0.8809   15.9424 H       1  UNL1        0.0000
     17 H           3.4079    3.8447   16.9314 H       1  UNL1        0.0000
     18 H           1.5471    2.8282   14.3552 H       1  UNL1        0.0000
     19 H           2.0101    7.5477   16.5214 H       1  UNL1        0.0000
     20 H           3.4234    6.6860   17.0832 H       1  UNL1        0.0000
     21 H           1.8782    5.8692   17.0048 H       1  UNL1        0.0000
     22 H           4.8939    7.1258   13.5877 H       1  UNL1        0.0000
     23 H           4.1708    8.2294   14.7438 H       1  UNL1        0.0000
     24 H           3.4417    8.0066   13.1747 H       1  UNL1        0.0000
     25 H           1.1477    6.2955   12.8181 H       1  UNL1        0.0000
     26 H           0.7134    7.2850   14.1953 H       1  UNL1        0.0000
     27 H           0.4276    5.5573   14.2334 H       1  UNL1        0.0000
     28 H           0.7301    4.1290   12.1774 H       1  UNL1        0.0000
     29 H           1.1163    2.7252   11.2167 H       1  UNL1        0.0000
     30 H           0.9818    4.2974   10.4507 H       1  UNL1        0.0000
     31 H           3.8996    1.9231   10.4213 H       1  UNL1        0.0000
     32 H           4.9899    3.2362   10.0090 H       1  UNL1        0.0000
     33 H           3.3967    3.1581    9.2896 H       1  UNL1        0.0000
     34 H           2.9427    6.5702   11.4512 H       1  UNL1        0.0000
     35 H           3.5677    5.8908    9.9637 H       1  UNL1        0.0000
     36 H           4.6304    6.1137   11.3384 H       1  UNL1        0.0000
@<TRIPOS>BOND
     1    33    13    1
     2    35    14    1
     3    32    13    1
     4    13    31    1
     5    13     2    1
     6    30    12    1
     7    14    36    1
     8    14    34    1
     9    14     2    1
    10    29    12    1
    11    12     2    1
    12    12    28    1
    13     2     4    1
    14    15     5    1
    15    25    11    1
    16    24    10    1
    17     4     5    1
    18     4     8    1
    19     4     3    1
    20    22    10    1
    21     5     6    1
    22    11    26    1
    23    11    27    1
    24    11     1    1
    25    10     1    1
    26    10    23    1
    27    18     8    1
    28     8     3    1
    29     8     6    1
    30     3     1    1
    31     3     7    1
    32     1     9    1
    33     6     7    1
    34     6    16    1
    35     7    17    1
    36     9    19    1
    37     9    21    1
    38     9    20    1
