@<TRIPOS>MOLECULE
3,4,7,9,10,12,14,24,26,36
 37 38 0 0 0
SMALL
GASTEIGER

@<TRIPOS>ATOM
      1 SI         -2.1887    2.4012    6.6404 Si      1  UNL1        0.0000
      2 SI          1.0135    2.4410    6.3518 Si      1  UNL1        0.0000
      3 N          -0.6210    1.9719    6.0632 N.3     1  UNL1        0.0000
      4 C           0.7778    3.5857    3.6731 C.2     1  UNL1        0.0000
      5 H           0.5641    4.6066    3.9789 H       1  UNL1        0.0000
      6 C          -2.8999    2.5722    4.8786 C.3     1  UNL1        0.0000
      7 C          -3.2502    1.4449    4.0902 C.2     1  UNL1        0.0000
      8 H          -3.7103    0.5373    4.4688 H       1  UNL1        0.0000
      9 C           1.4017    2.6033    4.4911 C.3     1  UNL1        0.0000
     10 C           1.1994    1.7739    2.3509 C.2     1  UNL1        0.0000
     11 H           1.3811    1.1736    1.4678 H       1  UNL1        0.0000
     12 C           1.6232    1.4710    3.6644 C.2     1  UNL1        0.0000
     13 H           2.1535    0.5727    3.9653 H       1  UNL1        0.0000
     14 C          -2.4395    3.5702    3.9757 C.2     1  UNL1        0.0000
     15 H          -2.1853    4.5901    4.2521 H       1  UNL1        0.0000
     16 C           2.0640    1.0583    7.1502 C.3     1  UNL1        0.0000
     17 H           1.8407    0.9767    8.2078 H       1  UNL1        0.0000
     18 H           3.1263    1.2542    7.0498 H       1  UNL1        0.0000
     19 H           1.8497    0.0960    6.6964 H       1  UNL1        0.0000
     20 C          -3.0532    0.9839    7.5873 C.3     1  UNL1        0.0000
     21 H          -2.8742    0.0284    7.1050 H       1  UNL1        0.0000
     22 H          -4.1249    1.1394    7.6497 H       1  UNL1        0.0000
     23 H          -2.6698    0.9149    8.5988 H       1  UNL1        0.0000
     24 C          -3.0667    1.7663    2.7265 C.2     1  UNL1        0.0000
     25 H          -3.3945    1.1728    1.8818 H       1  UNL1        0.0000
     26 C           0.6686    3.0811    2.3562 C.2     1  UNL1        0.0000
     27 H           0.3833    3.6458    1.4752 H       1  UNL1        0.0000
     28 C           1.3003    4.0898    7.2746 C.3     1  UNL1        0.0000
     29 H           0.7689    4.9131    6.8092 H       1  UNL1        0.0000
     30 H           2.3532    4.3472    7.3060 H       1  UNL1        0.0000
     31 H           0.9497    4.0083    8.2967 H       1  UNL1        0.0000
     32 C          -2.3492    4.0326    7.6225 C.3     1  UNL1        0.0000
     33 H          -1.8563    3.9379    8.5829 H       1  UNL1        0.0000
     34 H          -3.3883    4.2814    7.8078 H       1  UNL1        0.0000
     35 H          -1.8939    4.8668    7.0999 H       1  UNL1        0.0000
     36 C          -2.5572    3.0800    2.6542 C.2     1  UNL1        0.0000
     37 H          -2.4369    3.6571    1.7438 H       1  UNL1        0.0000
@<TRIPOS>BOND
     1    11    10    1
     2    27    26    1
     3    37    36    1
     4    25    24    1
     5    10    26    1
     6    10    12    2
     7    26     4    2
     8    36    24    1
     9    36    14    2
    10    24     7    2
    11    12    13    1
    12    12     9    1
    13     4     5    1
    14     4     9    1
    15    14    15    1
    16    14     6    1
    17     7     8    1
    18     7     6    1
    19     9     2    1
    20     6     1    1
    21     3     2    1
    22     3     1    1
    23     2    16    1
    24     2    28    1
    25     1    20    1
    26     1    32    1
    27    19    16    1
    28    29    28    1
    29    18    16    1
    30    35    32    1
    31    21    20    1
    32    16    17    1
    33    28    30    1
    34    28    31    1
    35    20    22    1
    36    20    23    1
    37    32    34    1
    38    32    33    1
