@<TRIPOS>MOLECULE
3,4,5,7,9,11,14,16,18,20
 37 38 0 0 0
SMALL
GASTEIGER

@<TRIPOS>ATOM
      1 SI          6.3944    2.6360    0.4101 Si      1  UNL1        0.0000
      2 SI          5.8403    4.7415    2.7714 Si      1  UNL1        0.0000
      3 N           6.4700    3.3478    1.9805 N.3     1  UNL1        0.0000
      4 C           8.1927    3.0263   -0.0862 C.3     1  UNL1        0.0000
      5 C           9.2887    2.2217    0.3304 C.2     1  UNL1        0.0000
      6 H           9.2825    1.1392    0.4008 H       1  UNL1        0.0000
      7 C          10.4180    3.0483    0.5179 C.2     1  UNL1        0.0000
      8 H          11.4361    2.7098    0.6821 H       1  UNL1        0.0000
      9 C          10.0360    4.3758    0.2094 C.2     1  UNL1        0.0000
     10 H          10.7119    5.2193    0.1179 H       1  UNL1        0.0000
     11 C           8.6744    4.3630   -0.1376 C.2     1  UNL1        0.0000
     12 H           8.1041    5.2127   -0.5003 H       1  UNL1        0.0000
     13 C           7.5132    5.3854    3.4178 C.3     1  UNL1        0.0000
     14 C           8.2477    4.6761    4.4076 C.2     1  UNL1        0.0000
     15 H           7.8084    4.1586    5.2538 H       1  UNL1        0.0000
     16 C           9.6263    4.8857    4.1954 C.2     1  UNL1        0.0000
     17 H          10.4288    4.6010    4.8669 H       1  UNL1        0.0000
     18 C           9.7661    5.7185    3.0608 C.2     1  UNL1        0.0000
     19 H          10.6938    6.1738    2.7298 H       1  UNL1        0.0000
     20 C           8.4743    6.0147    2.5801 C.2     1  UNL1        0.0000
     21 H           8.2447    6.7215    1.7886 H       1  UNL1        0.0000
     22 C           6.2205    0.7363    0.5934 C.3     1  UNL1        0.0000
     23 H           6.9444    0.3635    1.3138 H       1  UNL1        0.0000
     24 H           6.3847    0.2271   -0.3503 H       1  UNL1        0.0000
     25 H           5.2303    0.4662    0.9435 H       1  UNL1        0.0000
     26 C           5.0967    3.3060   -0.8217 C.3     1  UNL1        0.0000
     27 H           4.1016    3.1861   -0.4094 H       1  UNL1        0.0000
     28 H           5.1331    2.7711   -1.7638 H       1  UNL1        0.0000
     29 H           5.2432    4.3596   -1.0292 H       1  UNL1        0.0000
     30 C           4.9990    6.0626    1.6691 C.3     1  UNL1        0.0000
     31 H           5.6307    6.3524    0.8352 H       1  UNL1        0.0000
     32 H           4.7565    6.9576    2.2315 H       1  UNL1        0.0000
     33 H           4.0755    5.6699    1.2598 H       1  UNL1        0.0000
     34 C           4.6612    4.2916    4.2124 C.3     1  UNL1        0.0000
     35 H           3.7213    3.9123    3.8274 H       1  UNL1        0.0000
     36 H           4.4413    5.1567    4.8283 H       1  UNL1        0.0000
     37 H           5.0893    3.5247    4.8498 H       1  UNL1        0.0000
@<TRIPOS>BOND
     1    28    26    1
     2    29    26    1
     3    26    27    1
     4    26     1    1
     5    12    11    1
     6    24    22    1
     7    11     4    1
     8    11     9    2
     9     4     5    1
    10     4     1    1
    11    10     9    1
    12     9     7    1
    13     5     6    1
    14     5     7    2
    15     1    22    1
    16     1     3    1
    17     7     8    1
    18    22    25    1
    19    22    23    1
    20    31    30    1
    21    33    30    1
    22    30    32    1
    23    30     2    1
    24    21    20    1
    25     3     2    1
    26    20    18    2
    27    20    13    1
    28    19    18    1
    29     2    13    1
    30     2    34    1
    31    18    16    1
    32    13    14    1
    33    35    34    1
    34    16    14    2
    35    16    17    1
    36    34    36    1
    37    34    37    1
    38    14    15    1
