@<TRIPOS>MOLECULE
3,4,5,7,9,11,13,14,16,18,20
 37 38 0 0 0
SMALL
GASTEIGER

@<TRIPOS>ATOM
      1 SI         29.5207   17.8564    0.5509 Si      1  UNL1        0.0000
      2 SI         26.1880   17.7351    0.5821 Si      1  UNL1        0.0000
      3 N          27.8389   18.2230    0.5724 N.3     1  UNL1        0.0000
      4 C          29.9962   19.6385    0.0215 C.3     1  UNL1        0.0000
      5 C          30.1555   20.6798    0.9742 C.2     1  UNL1        0.0000
      6 H          30.6152   20.5710    1.9509 H       1  UNL1        0.0000
      7 C          29.7063   21.8966    0.4146 C.2     1  UNL1        0.0000
      8 H          29.8185   22.8816    0.8574 H       1  UNL1        0.0000
      9 C          29.2766   21.6271   -0.9091 C.2     1  UNL1        0.0000
     10 H          29.0250   22.3753   -1.6533 H       1  UNL1        0.0000
     11 C          29.4327   20.2436   -1.1407 C.2     1  UNL1        0.0000
     12 H          29.2634   19.7377   -2.0863 H       1  UNL1        0.0000
     13 C          25.5749   19.4762    0.0577 C.3     1  UNL1        0.0000
     14 C          25.3556   20.5054    1.0118 C.2     1  UNL1        0.0000
     15 H          24.9207   20.3657    1.9958 H       1  UNL1        0.0000
     16 C          25.7060   21.7503    0.4436 C.2     1  UNL1        0.0000
     17 H          25.5295   22.7256    0.8869 H       1  UNL1        0.0000
     18 C          26.1327   21.5097   -0.8866 C.2     1  UNL1        0.0000
     19 H          26.3172   22.2725   -1.6357 H       1  UNL1        0.0000
     20 C          26.0741   20.1181   -1.1141 C.2     1  UNL1        0.0000
     21 H          26.2648   19.6236   -2.0616 H       1  UNL1        0.0000
     22 C          30.2162   17.5169    2.3024 C.3     1  UNL1        0.0000
     23 H          29.7560   18.1918    3.0214 H       1  UNL1        0.0000
     24 H          31.2921   17.6496    2.3500 H       1  UNL1        0.0000
     25 H          29.9965   16.5020    2.6158 H       1  UNL1        0.0000
     26 C          30.0547   16.5151   -0.6976 C.3     1  UNL1        0.0000
     27 H          29.6499   15.5546   -0.4025 H       1  UNL1        0.0000
     28 H          31.1335   16.4226   -0.7406 H       1  UNL1        0.0000
     29 H          29.6951   16.7317   -1.6971 H       1  UNL1        0.0000
     30 C          25.7317   16.3527   -0.6523 C.3     1  UNL1        0.0000
     31 H          26.0498   16.5939   -1.6601 H       1  UNL1        0.0000
     32 H          24.6628   16.1754   -0.6699 H       1  UNL1        0.0000
     33 H          26.2176   15.4278   -0.3657 H       1  UNL1        0.0000
     34 C          25.5498   17.3543    2.3467 C.3     1  UNL1        0.0000
     35 H          25.8427   16.3574    2.6577 H       1  UNL1        0.0000
     36 H          24.4684   17.4150    2.4139 H       1  UNL1        0.0000
     37 H          25.9771   18.0611    3.0553 H       1  UNL1        0.0000
@<TRIPOS>BOND
     1    12    11    1
     2    21    20    1
     3    29    26    1
     4    31    30    1
     5    10     9    1
     6    19    18    1
     7    11     9    2
     8    11     4    1
     9    20    18    2
    10    20    13    1
    11     9     7    1
    12    18    16    1
    13    28    26    1
    14    26    27    1
    15    26     1    1
    16    32    30    1
    17    30    33    1
    18    30     2    1
    19     4     1    1
    20     4     5    1
    21    13     2    1
    22    13    14    1
    23     7     8    1
    24     7     5    2
    25    16    17    1
    26    16    14    2
    27     1     3    1
    28     1    22    1
    29     3     2    1
    30     2    34    1
    31     5     6    1
    32    14    15    1
    33    22    24    1
    34    22    25    1
    35    22    23    1
    36    34    36    1
    37    34    35    1
    38    34    37    1
