@<TRIPOS>MOLECULE
2,4,5,6,7,20,32,33,35,36,38
 53 54 0 0 0
SMALL
GASTEIGER

@<TRIPOS>ATOM
      1 SI         -1.2550    0.2123    6.2416 Si      1  UNL1        0.0000
      2 N          -1.2308    2.8334    1.4697 N.3     1  UNL1        0.0000
      3 C          -0.6137    3.0722    5.7411 C.2     1  UNL1        0.0000
      4 C           0.3055    3.8019    4.9502 C.2     1  UNL1        0.0000
      5 C           1.3262    2.9235    4.5256 C.3     1  UNL1        0.0000
      6 C           1.0240    1.6166    5.0568 C.3     1  UNL1        0.0000
      7 C          -0.1951    1.7359    5.8417 C.3     1  UNL1        0.0000
      8 C          -1.8301    3.6717    6.3734 C.3     1  UNL1        0.0000
      9 H          -2.1243    3.0962    7.2443 H       1  UNL1        0.0000
     10 H          -2.6729    3.6947    5.6773 H       1  UNL1        0.0000
     11 H          -1.6297    4.6942    6.6886 H       1  UNL1        0.0000
     12 C           0.2479    5.2793    4.6974 C.3     1  UNL1        0.0000
     13 H           0.7722    5.5473    3.7806 H       1  UNL1        0.0000
     14 H           0.7202    5.8233    5.5180 H       1  UNL1        0.0000
     15 H          -0.7819    5.6270    4.6216 H       1  UNL1        0.0000
     16 C           2.6555    3.3152    3.9308 C.3     1  UNL1        0.0000
     17 H           2.6149    4.3173    3.5078 H       1  UNL1        0.0000
     18 H           2.9710    2.6253    3.1458 H       1  UNL1        0.0000
     19 H           3.4220    3.3129    4.7088 H       1  UNL1        0.0000
     20 C           2.0691    0.5324    5.2211 C.3     1  UNL1        0.0000
     21 H           1.6147   -0.4452    5.3796 H       1  UNL1        0.0000
     22 H           2.6899    0.7552    6.0937 H       1  UNL1        0.0000
     23 H           2.7306    0.4781    4.3527 H       1  UNL1        0.0000
     24 C          -0.3198   -1.1787    7.1605 C.3     1  UNL1        0.0000
     25 H           0.4341   -0.7732    7.8267 H       1  UNL1        0.0000
     26 H           0.1716   -1.8664    6.4811 H       1  UNL1        0.0000
     27 H          -1.0114   -1.7585    7.7618 H       1  UNL1        0.0000
     28 C          -2.8652    0.5218    7.2139 C.3     1  UNL1        0.0000
     29 H          -2.6551    0.9091    8.2047 H       1  UNL1        0.0000
     30 H          -3.4015   -0.4136    7.3353 H       1  UNL1        0.0000
     31 H          -3.5286    1.2159    6.7124 H       1  UNL1        0.0000
     32 C          -1.6594   -0.2252    4.4409 C.3     1  UNL1        0.0000
     33 C          -2.4462    0.6316    3.6138 C.3     1  UNL1        0.0000
     34 H          -3.1813    1.3348    3.9864 H       1  UNL1        0.0000
     35 C          -2.2882    0.2399    2.2631 C.3     1  UNL1        0.0000
     36 C          -1.3749   -0.8440    2.2403 C.2     1  UNL1        0.0000
     37 H          -1.1068   -1.4233    1.3671 H       1  UNL1        0.0000
     38 C          -0.9808   -1.1148    3.5633 C.2     1  UNL1        0.0000
     39 H          -0.3702   -1.9547    3.8708 H       1  UNL1        0.0000
     40 C          -2.8692    0.9442    1.0676 C.3     1  UNL1        0.0000
     41 H          -3.7883    1.4643    1.3500 H       1  UNL1        0.0000
     42 H          -3.1245    0.2232    0.2868 H       1  UNL1        0.0000
     43 C          -1.8530    1.9373    0.4643 C.3     1  UNL1        0.0000
     44 H          -1.0446    1.3621   -0.0011 H       1  UNL1        0.0000
     45 H          -2.3442    2.5405   -0.3151 H       1  UNL1        0.0000
     46 C          -2.2326    3.7876    1.9666 C.3     1  UNL1        0.0000
     47 H          -1.7702    4.4626    2.6875 H       1  UNL1        0.0000
     48 H          -3.0477    3.2612    2.4594 H       1  UNL1        0.0000
     49 H          -2.6484    4.3834    1.1426 H       1  UNL1        0.0000
     50 C          -0.1660    3.6056    0.8052 C.3     1  UNL1        0.0000
     51 H           0.6099    2.9338    0.4333 H       1  UNL1        0.0000
     52 H           0.2841    4.2980    1.5196 H       1  UNL1        0.0000
     53 H          -0.5678    4.1845   -0.0375 H       1  UNL1        0.0000
@<TRIPOS>BOND
     1    45    43    1
     2    53    50    1
     3    44    43    1
     4    42    40    1
     5    51    50    1
     6    43    40    1
     7    43     2    1
     8    50     2    1
     9    50    52    1
    10    40    41    1
    11    40    35    1
    12    49    46    1
    13    37    36    1
    14     2    46    1
    15    46    48    1
    16    46    47    1
    17    36    35    1
    18    36    38    2
    19    35    33    1
    20    18    16    1
    21    17    16    1
    22    38    39    1
    23    38    32    1
    24    33    34    1
    25    33    32    1
    26    13    12    1
    27    16     5    1
    28    16    19    1
    29    23    20    1
    30    32     1    1
    31     5     4    1
    32     5     6    1
    33    15    12    1
    34    12     4    1
    35    12    14    1
    36     4     3    2
    37     6    20    1
    38     6     7    1
    39    20    21    1
    40    20    22    1
    41    10     8    1
    42     3     7    1
    43     3     8    1
    44     7     1    1
    45     1    24    1
    46     1    28    1
    47     8    11    1
    48     8     9    1
    49    26    24    1
    50    31    28    1
    51    24    27    1
    52    24    25    1
    53    28    30    1
    54    28    29    1
