@<TRIPOS>MOLECULE
6,7,9,10,48
 68 69 0 0 0
SMALL
GASTEIGER

@<TRIPOS>ATOM
      1 SI          1.8347   13.3427    3.5845 Si      1  UNL1        0.0000
      2 SI          3.1988    7.9413    3.1252 Si      1  UNL1        0.0000
      3 SI         -3.5297    5.9176    5.6946 Si      1  UNL1        0.0000
      4 B           0.7478    6.4828    4.3621 B       1  UNL1        0.0000
      5 C           1.4884   11.5334    3.6806 C.1     1  UNL1        0.0000
      6 C           1.2306   10.3459    3.8150 C.1     1  UNL1        0.0000
      7 C           0.8193    9.0424    4.0744 C.2     1  UNL1        0.0000
      8 C           1.4894    7.8838    3.9673 C.2     1  UNL1        0.0000
      9 C          -0.7199    6.6803    4.9274 C.3     1  UNL1        0.0000
     10 C          -1.9079    6.7455    5.2333 C.3     1  UNL1        0.0000
     11 C           0.8783   14.1944    5.0058 C.3     1  UNL1        0.0000
     12 H           1.1911   13.8074    5.9714 H       1  UNL1        0.0000
     13 H          -0.1939   14.0389    4.9192 H       1  UNL1        0.0000
     14 H           1.0513   15.2666    5.0134 H       1  UNL1        0.0000
     15 C           1.2297   14.0042    1.9004 C.3     1  UNL1        0.0000
     16 H           1.4306   15.0669    1.7987 H       1  UNL1        0.0000
     17 H           0.1610   13.8589    1.7717 H       1  UNL1        0.0000
     18 H           1.7289   13.4963    1.0810 H       1  UNL1        0.0000
     19 C           3.7058   13.6377    3.7909 C.3     1  UNL1        0.0000
     20 H           4.0612   13.2536    4.7424 H       1  UNL1        0.0000
     21 H           3.9500   14.6955    3.7514 H       1  UNL1        0.0000
     22 H           4.2688   13.1403    3.0071 H       1  UNL1        0.0000
     23 C           4.3242    9.2091    4.0024 C.3     1  UNL1        0.0000
     24 H           4.5602    8.8977    5.0144 H       1  UNL1        0.0000
     25 H           3.8547   10.1855    4.0550 H       1  UNL1        0.0000
     26 H           5.2606    9.3188    3.4637 H       1  UNL1        0.0000
     27 C           2.8391    8.5118    1.3313 C.3     1  UNL1        0.0000
     28 H           3.7595    8.6822    0.7823 H       1  UNL1        0.0000
     29 H           2.2770    9.4410    1.3297 H       1  UNL1        0.0000
     30 H           2.2618    7.7729    0.7813 H       1  UNL1        0.0000
     31 C           4.1062    6.2643    3.0586 C.3     1  UNL1        0.0000
     32 H           3.8088    5.6792    2.1952 H       1  UNL1        0.0000
     33 H           3.9329    5.6581    3.9403 H       1  UNL1        0.0000
     34 H           5.1762    6.4270    2.9814 H       1  UNL1        0.0000
     35 C          -3.0544    4.5731    6.9590 C.3     1  UNL1        0.0000
     36 H          -3.9218    3.9929    7.2589 H       1  UNL1        0.0000
     37 H          -2.6158    4.9974    7.8579 H       1  UNL1        0.0000
     38 H          -2.3300    3.8859    6.5338 H       1  UNL1        0.0000
     39 C          -4.2073    5.1712    4.0759 C.3     1  UNL1        0.0000
     40 H          -3.4951    4.4708    3.6502 H       1  UNL1        0.0000
     41 H          -4.4100    5.9314    3.3267 H       1  UNL1        0.0000
     42 H          -5.1331    4.6329    4.2537 H       1  UNL1        0.0000
     43 C          -4.7852    7.1444    6.4574 C.3     1  UNL1        0.0000
     44 H          -5.4313    7.5763    5.6983 H       1  UNL1        0.0000
     45 H          -4.3062    7.9580    6.9983 H       1  UNL1        0.0000
     46 H          -5.4293    6.6259    7.1620 H       1  UNL1        0.0000
     47 C           0.5136    5.7626    2.9228 C.ar    1  UNL1        0.0000
     48 F          -1.0245    7.5204    2.5226 F       1  UNL1        0.0000
     49 C          -0.3782    6.3927    2.0650 C.ar    1  UNL1        0.0000
     50 F          -1.5442    6.6287    0.0204 F       1  UNL1        0.0000
     51 C          -0.6595    5.9681    0.7782 C.ar    1  UNL1        0.0000
     52 F          -0.2508    4.4017   -0.9507 F       1  UNL1        0.0000
     53 C          -0.0066    4.8413    0.2875 C.ar    1  UNL1        0.0000
     54 F           1.5394    3.0995    0.6447 F       1  UNL1        0.0000
     55 C           0.9031    4.1807    1.1060 C.ar    1  UNL1        0.0000
     56 F           2.0295    3.9551    3.1351 F       1  UNL1        0.0000
     57 C           1.1479    4.6419    2.3970 C.ar    1  UNL1        0.0000
     58 C           1.4744    5.5621    5.4867 C.ar    1  UNL1        0.0000
     59 F           2.9009    7.2900    6.2374 F       1  UNL1        0.0000
     60 C           2.4776    6.0180    6.3314 C.ar    1  UNL1        0.0000
     61 F           4.0250    5.7139    8.0999 F       1  UNL1        0.0000
     62 C           3.0524    5.2249    7.3199 C.ar    1  UNL1        0.0000
     63 F           3.1387    3.1500    8.4541 F       1  UNL1        0.0000
     64 C           2.6010    3.9244    7.5068 C.ar    1  UNL1        0.0000
     65 F           1.0786    2.2168    6.9133 F       1  UNL1        0.0000
     66 C           1.5613    3.4498    6.7148 C.ar    1  UNL1        0.0000
     67 F          -0.0180    3.7898    5.0249 F       1  UNL1        0.0000
     68 C           1.0176    4.2720    5.7366 C.ar    1  UNL1        0.0000
@<TRIPOS>BOND
     1    52    53    1
     2    50    51    1
     3    53    51   ar
     4    53    55   ar
     5    54    55    1
     6    51    49   ar
     7    30    27    1
     8    28    27    1
     9    18    15    1
    10    55    57   ar
    11    29    27    1
    12    27     2    1
    13    17    15    1
    14    16    15    1
    15    15     1    1
    16    49    48    1
    17    49    47   ar
    18    32    31    1
    19    57    47   ar
    20    57    56    1
    21    47     4    1
    22    34    31    1
    23    22    19    1
    24    31     2    1
    25    31    33    1
    26     2     8    1
    27     2    23    1
    28    41    39    1
    29    26    23    1
    30     1     5    1
    31     1    19    1
    32     1    11    1
    33    40    39    1
    34     5     6    3
    35    21    19    1
    36    19    20    1
    37     6     7    1
    38     8     7    2
    39     8     4    1
    40    23    25    1
    41    23    24    1
    42    39    42    1
    43    39     3    1
    44     4     9    1
    45     4    58    1
    46    13    11    1
    47     9    10    1
    48    11    14    1
    49    11    12    1
    50    67    68    1
    51    10     3    1
    52    58    68   ar
    53    58    60   ar
    54     3    43    1
    55     3    35    1
    56    44    43    1
    57    68    66   ar
    58    59    60    1
    59    60    62   ar
    60    43    45    1
    61    43    46    1
    62    38    35    1
    63    66    65    1
    64    66    64   ar
    65    35    36    1
    66    35    37    1
    67    62    64   ar
    68    62    61    1
    69    64    63    1
