@<TRIPOS>MOLECULE
1,11,26,27,29
 35 36 0 0 0
SMALL
GASTEIGER

@<TRIPOS>ATOM
      1 F          -0.5016    3.8484    4.5683 F       1  UNL1        0.0000
      2 F          -3.6950    5.7370    3.8182 F       1  UNL1        0.0000
      3 F           0.8919    5.8345    5.8061 F       1  UNL1        0.0000
      4 F          -7.5458    5.1885    1.1660 F       1  UNL1        0.0000
      5 F          -1.8579    6.9261    1.2395 F       1  UNL1        0.0000
      6 F          -3.5527    3.0164   -0.0412 F       1  UNL1        0.0000
      7 F          -0.4842    8.8989    2.4807 F       1  UNL1        0.0000
      8 F           0.9132    8.3784    4.7616 F       1  UNL1        0.0000
      9 F          -6.1480    3.5335   -0.5034 F       1  UNL1        0.0000
     10 F          -6.2864    6.2824    3.3372 F       1  UNL1        0.0000
     11 C          -1.3001    2.8629    1.8733 C.3     1  UNL1        0.0000
     12 H          -1.8520    2.0636    1.3677 H       1  UNL1        0.0000
     13 C          -1.1858    5.3310    2.8390 C.ar    1  UNL1        0.0000
     14 C          -0.4663    5.1291    4.0062 C.ar    1  UNL1        0.0000
     15 C          -4.2685    5.2184    2.7118 C.ar    1  UNL1        0.0000
     16 C           0.2399    7.4021    4.1514 C.ar    1  UNL1        0.0000
     17 C          -0.4773    7.6635    2.9841 C.ar    1  UNL1        0.0000
     18 C          -6.2542    4.9360    1.3945 C.ar    1  UNL1        0.0000
     19 C          -3.5057    4.3968    1.8781 C.ar    1  UNL1        0.0000
     20 C          -4.1975    3.8424    0.7989 C.ar    1  UNL1        0.0000
     21 C          -5.5384    4.0966    0.5464 C.ar    1  UNL1        0.0000
     22 C           0.2382    6.1132    4.6776 C.ar    1  UNL1        0.0000
     23 C          -1.1759    6.6406    2.3550 C.ar    1  UNL1        0.0000
     24 B          -1.9740    4.1385    2.1550 B       1  UNL1        0.0000
     25 C          -5.6094    5.4951    2.4935 C.ar    1  UNL1        0.0000
     26 C           0.6904    1.3772    2.0004 C.2     1  UNL1        0.0000
     27 C           0.1454    2.6413    1.9162 C.2     1  UNL1        0.0000
     28 H           0.8022    3.5027    1.8036 H       1  UNL1        0.0000
     29 C          -0.1697    0.2287    2.2976 C.3     1  UNL1        0.0000
     30 H           0.3880   -0.7064    2.3798 H       1  UNL1        0.0000
     31 H          -1.0087    0.1051    1.6027 H       1  UNL1        0.0000
     32 C           2.1788    1.1736    1.8855 C.3     1  UNL1        0.0000
     33 H           2.7312    2.0913    2.0820 H       1  UNL1        0.0000
     34 H           2.4124    0.8583    0.8664 H       1  UNL1        0.0000
     35 H           2.5299    0.3912    2.5593 H       1  UNL1        0.0000
@<TRIPOS>BOND
     1     9    21    1
     2     6    20    1
     3    21    20   ar
     4    21    18   ar
     5    20    19   ar
     6    34    32    1
     7     4    18    1
     8     5    23    1
     9    12    11    1
    10    18    25   ar
    11    31    29    1
    12    28    27    1
    13    11    27    1
    14    11    24    1
    15    19    24    1
    16    19    15   ar
    17    32    26    1
    18    32    33    1
    19    32    35    1
    20    27    26    2
    21    26    29    1
    22    24    13    1
    23    29    30    1
    24    23    13   ar
    25    23    17   ar
    26     7    17    1
    27    25    15   ar
    28    25    10    1
    29    15     2    1
    30    13    14   ar
    31    17    16   ar
    32    14     1    1
    33    14    22   ar
    34    16    22   ar
    35    16     8    1
    36    22     3    1
