@<TRIPOS>MOLECULE
1,4,11
 47 48 0 0 0
SMALL
GASTEIGER

@<TRIPOS>ATOM
      1 S           2.1845    1.2235    3.3155 S.3     1  UNL1        0.0000
      2 SI          1.4712    2.2321    0.0618 Si      1  UNL1        0.0000
      3 SI          0.0124    0.2936    5.3244 Si      1  UNL1        0.0000
      4 N           3.0715    2.4997    2.7202 N.pl3   1  UNL1        0.0000
      5 C           0.5139    1.4735    2.7394 C.ar    1  UNL1        0.0000
      6 C           0.2141    1.9961    1.4842 C.ar    1  UNL1        0.0000
      7 C          -1.1291    2.2606    1.2237 C.ar    1  UNL1        0.0000
      8 C          -2.1181    1.9815    2.1469 C.ar    1  UNL1        0.0000
      9 C          -1.7868    1.3919    3.3544 C.ar    1  UNL1        0.0000
     10 C          -0.4622    1.1372    3.6827 C.ar    1  UNL1        0.0000
     11 C           2.8684    0.9593    0.1629 C.3     1  UNL1        0.0000
     12 C           2.1443    4.0267   -0.0156 C.3     1  UNL1        0.0000
     13 C           0.4876    1.9290   -1.5557 C.3     1  UNL1        0.0000
     14 C          -1.5959   -0.1236    6.2577 C.3     1  UNL1        0.0000
     15 C           1.0389    1.4193    6.4802 C.3     1  UNL1        0.0000
     16 C           0.9031   -1.3572    4.9633 C.3     1  UNL1        0.0000
     17 C           2.9780    3.7745    3.2007 C.ar    1  UNL1        0.0000
     18 C           1.9372    4.1937    4.0367 C.ar    1  UNL1        0.0000
     19 C           1.8765    5.5009    4.4766 C.ar    1  UNL1        0.0000
     20 C           2.8440    6.4163    4.0995 C.ar    1  UNL1        0.0000
     21 C           3.8818    6.0102    3.2727 C.ar    1  UNL1        0.0000
     22 C           3.9554    4.7088    2.8247 C.ar    1  UNL1        0.0000
     23 H          -1.3996    2.6869    0.2703 H       1  UNL1        0.0000
     24 H          -3.1501    2.2067    1.9189 H       1  UNL1        0.0000
     25 H          -2.5640    1.1441    4.0605 H       1  UNL1        0.0000
     26 H           3.3723    0.8747   -0.8014 H       1  UNL1        0.0000
     27 H           2.4596   -0.0266    0.4197 H       1  UNL1        0.0000
     28 H           3.2091    4.0468    0.2055 H       1  UNL1        0.0000
     29 H           1.9968    4.4484   -1.0050 H       1  UNL1        0.0000
     30 H           1.6474    4.6796    0.6971 H       1  UNL1        0.0000
     31 H          -0.1784    2.7567   -1.7734 H       1  UNL1        0.0000
     32 H           1.1650    1.8323   -2.3977 H       1  UNL1        0.0000
     33 H          -0.1105    1.0249   -1.5086 H       1  UNL1        0.0000
     34 H          -2.1513    0.7685    6.5277 H       1  UNL1        0.0000
     35 H          -2.2513   -0.7630    5.6757 H       1  UNL1        0.0000
     36 H          -1.3632   -0.6498    7.1772 H       1  UNL1        0.0000
     37 H           1.1322    0.9553    7.4578 H       1  UNL1        0.0000
     38 H           2.0422    1.6022    6.1094 H       1  UNL1        0.0000
     39 H           0.5585    2.3832    6.6252 H       1  UNL1        0.0000
     40 H           0.2492   -2.0411    4.4287 H       1  UNL1        0.0000
     41 H           1.7984   -1.2277    4.3624 H       1  UNL1        0.0000
     42 H           1.2005   -1.8443    5.8871 H       1  UNL1        0.0000
     43 H           1.1741    3.4872    4.3313 H       1  UNL1        0.0000
     44 H           1.0633    5.8051    5.1197 H       1  UNL1        0.0000
     45 H           2.7917    7.4371    4.4461 H       1  UNL1        0.0000
     46 H           4.6426    6.7171    2.9758 H       1  UNL1        0.0000
     47 H           4.7662    4.3868    2.1805 H       1  UNL1        0.0000
@<TRIPOS>BOND
     1    32    13    1
     2    31    13    1
     3    13    33    1
     4    13     2    1
     5    29    12    1
     6    26    11    1
     7    12     2    1
     8    12    28    1
     9    12    30    1
    10     2    11    1
    11     2     6    1
    12    11    27    1
    13    23     7    1
    14     7     6   ar
    15     7     8   ar
    16     6     5   ar
    17    24     8    1
    18     8     9   ar
    19    47    22    1
    20     4    17    1
    21     4     1    1
    22     5     1    1
    23     5    10   ar
    24    22    17   ar
    25    22    21   ar
    26    46    21    1
    27    17    18   ar
    28    21    20   ar
    29     9    10   ar
    30     9    25    1
    31    10     3    1
    32    18    43    1
    33    18    19   ar
    34    20    45    1
    35    20    19   ar
    36    41    16    1
    37    40    16    1
    38    19    44    1
    39    16     3    1
    40    16    42    1
    41     3    14    1
    42     3    15    1
    43    35    14    1
    44    38    15    1
    45    14    34    1
    46    14    36    1
    47    15    39    1
    48    15    37    1
