@<TRIPOS>MOLECULE
1,59,62
 63 66 0 0 0
SMALL
GASTEIGER

@<TRIPOS>ATOM
      1 C           6.7656    3.8859    4.6869 C.3     1  UNL1        0.0000
      2 H           7.7210    3.3882    4.4859 H       1  UNL1        0.0000
      3 C           7.4648    3.3040    7.3711 C.ar    1  UNL1        0.0000
      4 C           8.7384    2.8073    7.1063 C.ar    1  UNL1        0.0000
      5 H           9.3244    3.2204    6.2957 H       1  UNL1        0.0000
      6 C           9.2549    1.7822    7.8763 C.ar    1  UNL1        0.0000
      7 H          10.2437    1.3996    7.6690 H       1  UNL1        0.0000
      8 C           8.5017    1.2406    8.9063 C.ar    1  UNL1        0.0000
      9 H           8.9063    0.4351    9.5007 H       1  UNL1        0.0000
     10 C           7.2303    1.7239    9.1659 C.ar    1  UNL1        0.0000
     11 H           6.6366    1.2945    9.9581 H       1  UNL1        0.0000
     12 C           6.7118    2.7528    8.3998 C.ar    1  UNL1        0.0000
     13 H           5.7135    3.1247    8.5783 H       1  UNL1        0.0000
     14 C           7.6915    6.1096    6.5479 C.ar    1  UNL1        0.0000
     15 C           8.9341    6.1415    7.1656 C.ar    1  UNL1        0.0000
     16 H           9.3431    5.2461    7.6110 H       1  UNL1        0.0000
     17 C           9.6406    7.3301    7.2261 C.ar    1  UNL1        0.0000
     18 H          10.6064    7.3538    7.7093 H       1  UNL1        0.0000
     19 C           9.1135    8.4857    6.6744 C.ar    1  UNL1        0.0000
     20 H           9.6714    9.4088    6.7216 H       1  UNL1        0.0000
     21 C           7.8655    8.4599    6.0728 C.ar    1  UNL1        0.0000
     22 H           7.4456    9.3608    5.6515 H       1  UNL1        0.0000
     23 C           7.1577    7.2754    6.0092 C.ar    1  UNL1        0.0000
     24 H           6.1769    7.2458    5.5537 H       1  UNL1        0.0000
     25 C           5.7574    6.2769    9.1140 C.3     1  UNL1        0.0000
     26 H           6.5176    5.5117    9.2478 H       1  UNL1        0.0000
     27 H           5.3211    6.4842   10.0843 H       1  UNL1        0.0000
     28 H           6.2585    7.1807    8.7832 H       1  UNL1        0.0000
     29 C           3.1433    4.6447    8.8114 C.3     1  UNL1        0.0000
     30 H           2.3506    4.3056    8.1519 H       1  UNL1        0.0000
     31 H           2.6869    5.2278    9.6048 H       1  UNL1        0.0000
     32 H           3.5871    3.7621    9.2635 H       1  UNL1        0.0000
     33 C           3.5838    7.2878    7.1319 C.3     1  UNL1        0.0000
     34 H           4.3027    8.0783    6.9349 H       1  UNL1        0.0000
     35 H           2.8481    7.6807    7.8250 H       1  UNL1        0.0000
     36 H           3.0673    7.0588    6.2038 H       1  UNL1        0.0000
     37 C           7.7258    6.3729    3.1934 C.ar    1  UNL1        0.0000
     38 C           9.0300    6.1571    3.6184 C.ar    1  UNL1        0.0000
     39 H           9.2960    5.2278    4.1043 H       1  UNL1        0.0000
     40 C           9.9857    7.1404    3.4449 C.ar    1  UNL1        0.0000
     41 H          10.9969    6.9737    3.7859 H       1  UNL1        0.0000
     42 C           9.6435    8.3388    2.8410 C.ar    1  UNL1        0.0000
     43 H          10.3900    9.1082    2.7121 H       1  UNL1        0.0000
     44 C           8.3458    8.5516    2.4053 C.ar    1  UNL1        0.0000
     45 H           8.0800    9.4852    1.9325 H       1  UNL1        0.0000
     46 C           7.3864    7.5718    2.5803 C.ar    1  UNL1        0.0000
     47 H           6.3659    7.7299    2.2619 H       1  UNL1        0.0000
     48 C           6.5277    4.1718    1.8547 C.ar    1  UNL1        0.0000
     49 C           7.7454    3.6430    1.4402 C.ar    1  UNL1        0.0000
     50 H           8.6297    3.7774    2.0483 H       1  UNL1        0.0000
     51 C           7.8233    2.9545    0.2444 C.ar    1  UNL1        0.0000
     52 H           8.7674    2.5394   -0.0768 H       1  UNL1        0.0000
     53 C           6.6914    2.7970   -0.5410 C.ar    1  UNL1        0.0000
     54 H           6.7567    2.2559   -1.4730 H       1  UNL1        0.0000
     55 C           5.4819    3.3323   -0.1322 C.ar    1  UNL1        0.0000
     56 H           4.6017    3.2143   -0.7458 H       1  UNL1        0.0000
     57 C           5.3976    4.0217    1.0642 C.ar    1  UNL1        0.0000
     58 H           4.4598    4.4483    1.3876 H       1  UNL1        0.0000
     59 N           5.1529    4.8227    6.5754 N.3     1  UNL1        0.0000
     60 P           6.7088    4.5902    6.3244 P.3     1  UNL1        0.0000
     61 P           6.4289    5.0942    3.4276 P.3     1  UNL1        0.0000
     62 S           4.6673    5.9569    3.6581 S.3     1  UNL1        0.0000
     63 SI          4.4010    5.7314    7.8789 Si      1  UNL1        0.0000
@<TRIPOS>BOND
     1    54    53    1
     2    56    55    1
     3    53    55   ar
     4    53    51   ar
     5    55    57   ar
     6    52    51    1
     7    51    49   ar
     8    57    58    1
     9    57    48   ar
    10    49    48   ar
    11    49    50    1
    12    48    61    1
    13    45    44    1
    14    47    46    1
    15    44    46   ar
    16    44    42   ar
    17    46    37   ar
    18    43    42    1
    19    42    40   ar
    20    37    61    1
    21    37    38   ar
    22    61    62    1
    23    61     1    1
    24    40    38   ar
    25    40    41    1
    26    38    39    1
    27     2     1    1
    28     1    60    1
    29    24    23    1
    30    22    21    1
    31    23    21   ar
    32    23    14   ar
    33    21    19   ar
    34    36    33    1
    35     5     4    1
    36    60    14    1
    37    60    59    1
    38    60     3    1
    39    14    15   ar
    40    59    63    1
    41    19    20    1
    42    19    17   ar
    43    34    33    1
    44     4     3   ar
    45     4     6   ar
    46    33    35    1
    47    33    63    1
    48    15    17   ar
    49    15    16    1
    50    17    18    1
    51     3    12   ar
    52     7     6    1
    53     6     8   ar
    54    63    29    1
    55    63    25    1
    56    30    29    1
    57    12    13    1
    58    12    10   ar
    59    28    25    1
    60    29    32    1
    61    29    31    1
    62     8    10   ar
    63     8     9    1
    64    25    26    1
    65    25    27    1
    66    10    11    1
