@<TRIPOS>MOLECULE
1,59,62
 63 66 0 0 0
SMALL
GASTEIGER

@<TRIPOS>ATOM
      1 C           7.2238   -1.1476    4.6850 C.3     1  UNL1        0.0000
      2 H           8.1732   -1.6523    4.4745 H       1  UNL1        0.0000
      3 C           7.9066   -1.7276    7.3743 C.ar    1  UNL1        0.0000
      4 C           9.1815   -2.2300    7.1287 C.ar    1  UNL1        0.0000
      5 H           9.7838   -1.8147    6.3312 H       1  UNL1        0.0000
      6 C           9.6781   -3.2642    7.9002 C.ar    1  UNL1        0.0000
      7 H          10.6682   -3.6514    7.7082 H       1  UNL1        0.0000
      8 C           8.9029   -3.8093    8.9117 C.ar    1  UNL1        0.0000
      9 H           9.2919   -4.6219    9.5069 H       1  UNL1        0.0000
     10 C           7.6293   -3.3209    9.1516 C.ar    1  UNL1        0.0000
     11 H           7.0187   -3.7539    9.9289 H       1  UNL1        0.0000
     12 C           7.1307   -2.2828    8.3842 C.ar    1  UNL1        0.0000
     13 H           6.1307   -1.9048    8.5455 H       1  UNL1        0.0000
     14 C           8.1494    1.0840    6.5508 C.ar    1  UNL1        0.0000
     15 C           9.3938    1.1210    7.1645 C.ar    1  UNL1        0.0000
     16 H           9.8075    0.2266    7.6075 H       1  UNL1        0.0000
     17 C          10.0956    2.3126    7.2241 C.ar    1  UNL1        0.0000
     18 H          11.0628    2.3399    7.7044 H       1  UNL1        0.0000
     19 C           9.5623    3.4662    6.6743 C.ar    1  UNL1        0.0000
     20 H          10.1169    4.3914    6.7199 H       1  UNL1        0.0000
     21 C           8.3121    3.4358    6.0770 C.ar    1  UNL1        0.0000
     22 H           7.8876    4.3355    5.6577 H       1  UNL1        0.0000
     23 C           7.6083    2.2487    6.0156 C.ar    1  UNL1        0.0000
     24 H           6.6247    2.2146    5.5650 H       1  UNL1        0.0000
     25 C           8.1696    1.3260    3.1782 C.ar    1  UNL1        0.0000
     26 C           7.8340    2.5247    2.5625 C.ar    1  UNL1        0.0000
     27 H           6.8143    2.6825    2.2409 H       1  UNL1        0.0000
     28 C           8.7944    3.5039    2.3890 C.ar    1  UNL1        0.0000
     29 H           8.5306    4.4368    1.9138 H       1  UNL1        0.0000
     30 C          10.0903    3.2915    2.8302 C.ar    1  UNL1        0.0000
     31 H          10.8378    4.0602    2.7027 H       1  UNL1        0.0000
     32 C          10.4292    2.0942    3.4381 C.ar    1  UNL1        0.0000
     33 H          11.4386    1.9277    3.7843 H       1  UNL1        0.0000
     34 C           9.4719    1.1121    3.6099 C.ar    1  UNL1        0.0000
     35 H           9.7351    0.1832    4.0986 H       1  UNL1        0.0000
     36 C           6.9482   -0.8777    1.8563 C.ar    1  UNL1        0.0000
     37 C           8.1660   -1.3843    1.4160 C.ar    1  UNL1        0.0000
     38 H           9.0611   -1.2294    2.0032 H       1  UNL1        0.0000
     39 C           8.2314   -2.0753    0.2206 C.ar    1  UNL1        0.0000
     40 H           9.1765   -2.4718   -0.1207 H       1  UNL1        0.0000
     41 C           7.0860   -2.2569   -0.5393 C.ar    1  UNL1        0.0000
     42 H           7.1419   -2.7978   -1.4721 H       1  UNL1        0.0000
     43 C           5.8752   -1.7451   -0.1044 C.ar    1  UNL1        0.0000
     44 H           4.9846   -1.8817   -0.6986 H       1  UNL1        0.0000
     45 C           5.8032   -1.0545    1.0924 C.ar    1  UNL1        0.0000
     46 H           4.8644   -0.6438    1.4357 H       1  UNL1        0.0000
     47 C           3.9771    2.2284    7.0442 C.3     1  UNL1        0.0000
     48 H           4.6588    3.0727    6.9866 H       1  UNL1        0.0000
     49 H           3.1251    2.5367    7.6399 H       1  UNL1        0.0000
     50 H           3.6134    2.0153    6.0413 H       1  UNL1        0.0000
     51 C           6.1150    1.2763    9.1012 C.3     1  UNL1        0.0000
     52 H           6.8769    0.5195    9.2699 H       1  UNL1        0.0000
     53 H           5.6498    1.4972   10.0548 H       1  UNL1        0.0000
     54 H           6.6193    2.1773    8.7675 H       1  UNL1        0.0000
     55 C           3.5549   -0.4241    8.7475 C.3     1  UNL1        0.0000
     56 H           2.8555   -0.8918    8.0592 H       1  UNL1        0.0000
     57 H           2.9811    0.1779    9.4449 H       1  UNL1        0.0000
     58 H           4.0328   -1.2174    9.3165 H       1  UNL1        0.0000
     59 N           5.6121   -0.1949    6.5591 N.3     1  UNL1        0.0000
     60 P           7.1646   -0.4372    6.3186 P.3     1  UNL1        0.0000
     61 P           6.8635    0.0540    3.4278 P.3     1  UNL1        0.0000
     62 S           5.1159    0.9400    3.6620 S.3     1  UNL1        0.0000
     63 SI          4.8041    0.6915    7.8297 Si      1  UNL1        0.0000
@<TRIPOS>BOND
     1    42    41    1
     2    44    43    1
     3    41    43   ar
     4    41    39   ar
     5    40    39    1
     6    43    45   ar
     7    39    37   ar
     8    45    46    1
     9    45    36   ar
    10    37    36   ar
    11    37    38    1
    12    36    61    1
    13    29    28    1
    14    27    26    1
    15    28    26   ar
    16    28    30   ar
    17    26    25   ar
    18    31    30    1
    19    30    32   ar
    20    25    61    1
    21    25    34   ar
    22    61    62    1
    23    61     1    1
    24    32    34   ar
    25    32    33    1
    26    34    35    1
    27     2     1    1
    28     1    60    1
    29    24    23    1
    30    22    21    1
    31    23    21   ar
    32    23    14   ar
    33    50    47    1
    34    21    19   ar
    35    60    14    1
    36    60    59    1
    37    60     3    1
    38     5     4    1
    39    14    15   ar
    40    59    63    1
    41    19    20    1
    42    19    17   ar
    43    48    47    1
    44    47    49    1
    45    47    63    1
    46     4     3   ar
    47     4     6   ar
    48    15    17   ar
    49    15    16    1
    50    17    18    1
    51     3    12   ar
    52     7     6    1
    53    63    55    1
    54    63    51    1
    55     6     8   ar
    56    56    55    1
    57    12    13    1
    58    12    10   ar
    59    55    58    1
    60    55    57    1
    61    54    51    1
    62     8    10   ar
    63     8     9    1
    64    51    52    1
    65    51    53    1
    66    10    11    1
