@<TRIPOS>MOLECULE
1,4,5
 56 58 0 0 0
SMALL
GASTEIGER

@<TRIPOS>ATOM
      1 S         -11.1846    2.9745   -2.8406 S.3     1  UNL1        0.0000
      2 P          -9.3734    3.1850   -2.0067 P.3     1  UNL1        0.0000
      3 SI         -6.7443    1.5801   -1.2908 Si      1  UNL1        0.0000
      4 N          -8.7424    1.2683   -4.7413 N.3     1  UNL1        0.0000
      5 C          -8.2022    1.9283   -2.4458 C.3     1  UNL1        0.0000
      6 C          -6.1199   -0.1388   -1.8906 C.3     1  UNL1        0.0000
      7 H          -6.8556   -0.6235   -2.5293 H       1  UNL1        0.0000
      8 H          -5.9147   -0.7997   -1.0545 H       1  UNL1        0.0000
      9 H          -5.2005   -0.0480   -2.4608 H       1  UNL1        0.0000
     10 C          -5.1943    2.7239   -1.2662 C.3     1  UNL1        0.0000
     11 H          -5.0469    3.2763   -2.1878 H       1  UNL1        0.0000
     12 H          -4.3027    2.1253   -1.0998 H       1  UNL1        0.0000
     13 H          -5.2469    3.4451   -0.4546 H       1  UNL1        0.0000
     14 C          -7.1173    1.4090    0.5786 C.3     1  UNL1        0.0000
     15 H          -7.3015    2.3710    1.0447 H       1  UNL1        0.0000
     16 H          -6.2530    0.9708    1.0679 H       1  UNL1        0.0000
     17 H          -7.9696    0.7769    0.7955 H       1  UNL1        0.0000
     18 C          -9.7169    2.9703   -0.2300 C.ar    1  UNL1        0.0000
     19 C          -9.5079    3.9594    0.7212 C.ar    1  UNL1        0.0000
     20 H          -9.0417    4.8920    0.4370 H       1  UNL1        0.0000
     21 C          -9.8905    3.7462    2.0346 C.ar    1  UNL1        0.0000
     22 H          -9.7188    4.5159    2.7729 H       1  UNL1        0.0000
     23 C         -10.4965    2.5573    2.4022 C.ar    1  UNL1        0.0000
     24 H         -10.7989    2.3984    3.4266 H       1  UNL1        0.0000
     25 C         -10.7246    1.5744    1.4518 C.ar    1  UNL1        0.0000
     26 H         -11.2106    0.6525    1.7380 H       1  UNL1        0.0000
     27 C         -10.3359    1.7817    0.1427 C.ar    1  UNL1        0.0000
     28 H         -10.5108    1.0210   -0.6232 H       1  UNL1        0.0000
     29 C          -8.9489    4.9696   -2.0994 C.ar    1  UNL1        0.0000
     30 C          -7.6498    5.3618   -1.8030 C.ar    1  UNL1        0.0000
     31 H          -6.9286    4.6128   -1.5145 H       1  UNL1        0.0000
     32 C          -7.2942    6.6944   -1.8853 C.ar    1  UNL1        0.0000
     33 H          -6.2817    6.9962   -1.6596 H       1  UNL1        0.0000
     34 C          -8.2343    7.6397   -2.2626 C.ar    1  UNL1        0.0000
     35 H          -7.9539    8.6805   -2.3341 H       1  UNL1        0.0000
     36 C          -9.5318    7.2503   -2.5505 C.ar    1  UNL1        0.0000
     37 H         -10.2659    7.9874   -2.8415 H       1  UNL1        0.0000
     38 C          -9.8917    5.9175   -2.4724 C.ar    1  UNL1        0.0000
     39 H         -10.8984    5.6006   -2.7036 H       1  UNL1        0.0000
     40 C          -7.7448    1.9574   -3.9374 C.3     1  UNL1        0.0000
     41 H          -6.7843    1.4026   -3.9912 H       1  UNL1        0.0000
     42 C          -8.1497    0.6540   -5.9044 C.3     1  UNL1        0.0000
     43 H          -7.3296   -0.0393   -5.6372 H       1  UNL1        0.0000
     44 H          -7.7237    1.4240   -6.5688 H       1  UNL1        0.0000
     45 H          -8.9049    0.0979   -6.4647 H       1  UNL1        0.0000
     46 C          -7.4729    3.3490   -4.4657 C.ar    1  UNL1        0.0000
     47 C          -6.1753    3.8316   -4.5853 C.ar    1  UNL1        0.0000
     48 H          -5.3427    3.1898   -4.3310 H       1  UNL1        0.0000
     49 C          -5.9379    5.1158   -5.0413 C.ar    1  UNL1        0.0000
     50 H          -4.9229    5.4804   -5.1160 H       1  UNL1        0.0000
     51 C          -6.9947    5.9280   -5.4157 C.ar    1  UNL1        0.0000
     52 H          -6.8091    6.9302   -5.7740 H       1  UNL1        0.0000
     53 C          -8.2874    5.4391   -5.3482 C.ar    1  UNL1        0.0000
     54 H          -9.1178    6.0559   -5.6608 H       1  UNL1        0.0000
     55 C          -8.5234    4.1608   -4.8763 C.ar    1  UNL1        0.0000
     56 H          -9.5301    3.7697   -4.8423 H       1  UNL1        0.0000
@<TRIPOS>BOND
     1    44    42    1
     2    45    42    1
     3    42    43    1
     4    42     4    1
     5    52    51    1
     6    54    53    1
     7    51    53   ar
     8    51    49   ar
     9    53    55   ar
    10    50    49    1
    11    49    47   ar
    12    55    56    1
    13    55    46   ar
    14     4    40    1
    15    47    46   ar
    16    47    48    1
    17    46    40    1
    18    41    40    1
    19    40     5    1
    20    37    36    1
    21     1     2    1
    22    39    38    1
    23    36    38   ar
    24    36    34   ar
    25     7     6    1
    26    38    29   ar
    27     9     6    1
    28     5     2    1
    29     5     3    1
    30    35    34    1
    31    34    32   ar
    32    11    10    1
    33    29     2    1
    34    29    30   ar
    35     2    18    1
    36     6     3    1
    37     6     8    1
    38    32    30   ar
    39    32    33    1
    40    30    31    1
    41     3    10    1
    42     3    14    1
    43    10    12    1
    44    10    13    1
    45    28    27    1
    46    18    27   ar
    47    18    19   ar
    48    27    25   ar
    49    20    19    1
    50    14    17    1
    51    14    15    1
    52    14    16    1
    53    19    21   ar
    54    25    26    1
    55    25    23   ar
    56    21    23   ar
    57    21    22    1
    58    23    24    1
