@<TRIPOS>MOLECULE
1,2,3,4
 104 105 0 0 0
SMALL
GASTEIGER

@<TRIPOS>ATOM
      1 B           4.5069    5.8540    3.9574 B       1  UNL1        0.0000
      2 B           4.5857    4.6870    5.1140 B       1  UNL1        0.0000
      3 B           5.1576    3.1509    4.8943 B       1  UNL1        0.0000
      4 B           5.8887    2.5743    3.5351 B       1  UNL1        0.0000
      5 N           3.9747    7.0717    3.5721 N.3     1  UNL1        0.0000
      6 N           6.4731    1.4674    2.9354 N.3     1  UNL1        0.0000
      7 SI          3.0200    7.0717    2.0781 Si      1  UNL1        0.0000
      8 C           4.1119    7.5603    0.5968 C.3     1  UNL1        0.0000
      9 H           4.5674    8.5367    0.7164 H       1  UNL1        0.0000
     10 H           3.5360    7.5768   -0.3232 H       1  UNL1        0.0000
     11 H           4.9127    6.8390    0.4704 H       1  UNL1        0.0000
     12 C           1.5488    8.2694    2.2856 C.3     1  UNL1        0.0000
     13 H           0.8934    7.9618    3.0937 H       1  UNL1        0.0000
     14 H           0.9552    8.2894    1.3775 H       1  UNL1        0.0000
     15 H           1.8680    9.2851    2.4891 H       1  UNL1        0.0000
     16 C           2.3479    5.3167    1.7658 C.3     1  UNL1        0.0000
     17 H           3.1116    4.5788    2.0048 H       1  UNL1        0.0000
     18 H           2.0777    5.1947    0.7227 H       1  UNL1        0.0000
     19 H           1.4646    5.0957    2.3542 H       1  UNL1        0.0000
     20 SI          4.4061    8.5253    4.4819 Si      1  UNL1        0.0000
     21 C           5.9546    8.1282    5.5122 C.3     1  UNL1        0.0000
     22 H           5.7026    7.5087    6.3644 H       1  UNL1        0.0000
     23 H           6.4179    9.0342    5.8900 H       1  UNL1        0.0000
     24 H           6.6949    7.5977    4.9220 H       1  UNL1        0.0000
     25 C           2.9724    9.0088    5.6423 C.3     1  UNL1        0.0000
     26 H           2.0495    9.1938    5.1031 H       1  UNL1        0.0000
     27 H           3.2151    9.9119    6.1934 H       1  UNL1        0.0000
     28 H           2.7837    8.2244    6.3688 H       1  UNL1        0.0000
     29 C           4.8323    9.9405    3.2783 C.3     1  UNL1        0.0000
     30 H           5.6868    9.6773    2.6633 H       1  UNL1        0.0000
     31 H           5.0913   10.8397    3.8288 H       1  UNL1        0.0000
     32 H           4.0107   10.1891    2.6159 H       1  UNL1        0.0000
     33 C           3.9474    5.1967    6.4660 C.ar    1  UNL1        0.0000
     34 C           2.5753    5.4692    6.5789 C.ar    1  UNL1        0.0000
     35 C           2.0309    5.9061    7.7860 C.ar    1  UNL1        0.0000
     36 C           2.8579    6.0589    8.8873 C.ar    1  UNL1        0.0000
     37 H           2.4351    6.3897    9.8264 H       1  UNL1        0.0000
     38 C           4.2165    5.7966    8.8084 C.ar    1  UNL1        0.0000
     39 C           4.7616    5.3825    7.5949 C.ar    1  UNL1        0.0000
     40 C           1.6583    5.3071    5.3993 C.3     1  UNL1        0.0000
     41 H           0.8024    4.6829    5.6553 H       1  UNL1        0.0000
     42 H           2.1851    4.8618    4.5626 H       1  UNL1        0.0000
     43 H           1.2767    6.2782    5.0831 H       1  UNL1        0.0000
     44 C           0.5669    6.2161    7.9077 C.3     1  UNL1        0.0000
     45 H           0.2662    6.9677    7.1779 H       1  UNL1        0.0000
     46 H           0.3379    6.5912    8.9026 H       1  UNL1        0.0000
     47 H          -0.0360    5.3245    7.7323 H       1  UNL1        0.0000
     48 C           5.0755    5.9625   10.0281 C.3     1  UNL1        0.0000
     49 H           5.6246    5.0457   10.2394 H       1  UNL1        0.0000
     50 H           4.4646    6.2072   10.8941 H       1  UNL1        0.0000
     51 H           5.8027    6.7632    9.8874 H       1  UNL1        0.0000
     52 C           6.2395    5.1171    7.5174 C.3     1  UNL1        0.0000
     53 H           6.8055    5.9052    8.0123 H       1  UNL1        0.0000
     54 H           6.5648    5.0462    6.4830 H       1  UNL1        0.0000
     55 H           6.4704    4.1777    8.0182 H       1  UNL1        0.0000
     56 C           5.0956    2.0482    6.0261 C.ar    1  UNL1        0.0000
     57 C           3.8711    1.5093    6.4500 C.ar    1  UNL1        0.0000
     58 C           3.8201    0.5583    7.4683 C.ar    1  UNL1        0.0000
     59 C           4.9994    0.1276    8.0541 C.ar    1  UNL1        0.0000
     60 H           4.9622   -0.6191    8.8358 H       1  UNL1        0.0000
     61 C           6.2255    0.6374    7.6575 C.ar    1  UNL1        0.0000
     62 C           6.2716    1.6012    6.6515 C.ar    1  UNL1        0.0000
     63 C           2.5786    1.9552    5.8279 C.3     1  UNL1        0.0000
     64 H           1.9991    1.0994    5.4803 H       1  UNL1        0.0000
     65 H           2.7620    2.6250    4.9932 H       1  UNL1        0.0000
     66 H           1.9757    2.4836    6.5661 H       1  UNL1        0.0000
     67 C           2.5102   -0.0062    7.9341 C.3     1  UNL1        0.0000
     68 H           2.0062   -0.5382    7.1265 H       1  UNL1        0.0000
     69 H           1.8469    0.7891    8.2733 H       1  UNL1        0.0000
     70 H           2.6644   -0.7006    8.7568 H       1  UNL1        0.0000
     71 C           7.4820    0.1389    8.3104 C.3     1  UNL1        0.0000
     72 H           7.2540   -0.6503    9.0233 H       1  UNL1        0.0000
     73 H           7.9905    0.9431    8.8433 H       1  UNL1        0.0000
     74 H           8.1746   -0.2561    7.5676 H       1  UNL1        0.0000
     75 C           7.6124    2.1471    6.2493 C.3     1  UNL1        0.0000
     76 H           8.1736    2.4807    7.1218 H       1  UNL1        0.0000
     77 H           7.4975    2.9782    5.5611 H       1  UNL1        0.0000
     78 H           8.1998    1.3722    5.7573 H       1  UNL1        0.0000
     79 SI          8.1339    1.5979    2.3396 Si      1  UNL1        0.0000
     80 C           9.1223    0.1031    2.9993 C.3     1  UNL1        0.0000
     81 H           9.0856    0.0368    4.0815 H       1  UNL1        0.0000
     82 H          10.1656    0.1828    2.7122 H       1  UNL1        0.0000
     83 H           8.7460   -0.8343    2.6045 H       1  UNL1        0.0000
     84 C           8.8804    3.2253    2.9873 C.3     1  UNL1        0.0000
     85 H           8.1303    4.0127    2.9701 H       1  UNL1        0.0000
     86 H           9.7156    3.5372    2.3696 H       1  UNL1        0.0000
     87 H           9.2474    3.1387    4.0033 H       1  UNL1        0.0000
     88 C           8.1956    1.6286    0.4336 C.3     1  UNL1        0.0000
     89 H           8.1008    0.6411   -0.0041 H       1  UNL1        0.0000
     90 H           9.1380    2.0447    0.0908 H       1  UNL1        0.0000
     91 H           7.4006    2.2477    0.0322 H       1  UNL1        0.0000
     92 SI          5.4450    0.0481    2.6971 Si      1  UNL1        0.0000
     93 C           5.5875   -1.0929    4.2168 C.3     1  UNL1        0.0000
     94 H           6.6030   -1.4522    4.3506 H       1  UNL1        0.0000
     95 H           4.9452   -1.9616    4.1118 H       1  UNL1        0.0000
     96 H           5.3011   -0.5794    5.1284 H       1  UNL1        0.0000
     97 C           5.9226   -0.9072    1.1199 C.3     1  UNL1        0.0000
     98 H           5.8212   -0.2863    0.2366 H       1  UNL1        0.0000
     99 H           5.2670   -1.7633    0.9941 H       1  UNL1        0.0000
    100 H           6.9399   -1.2805    1.1508 H       1  UNL1        0.0000
    101 C           3.6681    0.6923    2.4588 C.3     1  UNL1        0.0000
    102 H           3.2763    1.1086    3.3777 H       1  UNL1        0.0000
    103 H           2.9966   -0.0988    2.1405 H       1  UNL1        0.0000
    104 H           3.6387    1.4744    1.7068 H       1  UNL1        0.0000
@<TRIPOS>BOND
     1    10     8    1
     2    89    88    1
     3    91    88    1
     4    90    88    1
     5    98    97    1
     6    88    79    1
     7    11     8    1
     8     8     9    1
     9     8     7    1
    10    18    16    1
    11    99    97    1
    12    97   100    1
    13    97    92    1
    14    14    12    1
    15   104   101    1
    16    16    17    1
    17    16     7    1
    18    16    19    1
    19     7    12    1
    20     7     5    1
    21   103   101    1
    22    12    15    1
    23    12    13    1
    24    79     6    1
    25    79    84    1
    26    79    80    1
    27    86    84    1
    28   101    92    1
    29   101   102    1
    30    83    80    1
    31    32    29    1
    32    30    29    1
    33    92     6    1
    34    92    93    1
    35    82    80    1
    36     6     4    1
    37    85    84    1
    38    84    87    1
    39    80    81    1
    40    29    31    1
    41    29    20    1
    42     4     3    1
    43     5     1    1
    44     5    20    1
    45     1     2    1
    46    95    93    1
    47    93    94    1
    48    93    96    1
    49    20    21    1
    50    20    25    1
    51    42    40    1
    52     3     2    1
    53     3    56    1
    54    24    21    1
    55    65    63    1
    56    43    40    1
    57    26    25    1
    58     2    33    1
    59    40    41    1
    60    40    34    1
    61    64    63    1
    62    21    23    1
    63    21    22    1
    64    77    75    1
    65    25    27    1
    66    25    28    1
    67    78    75    1
    68    63    57    1
    69    63    66    1
    70    56    57   ar
    71    56    62   ar
    72    75    62    1
    73    75    76    1
    74    57    58   ar
    75    33    34   ar
    76    33    39   ar
    77    54    52    1
    78    34    35   ar
    79    62    61   ar
    80    68    67    1
    81    45    44    1
    82    58    67    1
    83    58    59   ar
    84    52    39    1
    85    52    53    1
    86    52    55    1
    87    74    71    1
    88    39    38   ar
    89    61    59   ar
    90    61    71    1
    91    47    44    1
    92    35    44    1
    93    35    36   ar
    94    44    46    1
    95    67    69    1
    96    67    70    1
    97    59    60    1
    98    71    73    1
    99    71    72    1
   100    38    36   ar
   101    38    48    1
   102    36    37    1
   103    51    48    1
   104    48    49    1
   105    48    50    1
