@<TRIPOS>MOLECULE
3,6,7,11
 25 30 0 0 0
SMALL
GASTEIGER

@<TRIPOS>ATOM
      1 SI         -0.6452    4.1627    3.4630 Si      1  UNL1        0.0000
      2 C          -0.8964    3.1405    1.8469 C.3     1  UNL1        0.0000
      3 B          -0.4713    6.1810    3.6555 B       1  UNL1        0.0000
      4 B          -2.0932    5.3908    4.1050 B       1  UNL1        0.0000
      5 B          -1.7713    3.7765    5.0750 B       1  UNL1        0.0000
      6 B           0.0604    3.5143    5.2589 B       1  UNL1        0.0000
      7 B           0.3902    6.4583    5.1603 B       1  UNL1        0.0000
      8 B          -1.3783    6.6802    5.0359 B       1  UNL1        0.0000
      9 B          -2.1627    5.2957    5.8516 B       1  UNL1        0.0000
     10 B          -0.8902    4.2265    6.5107 B       1  UNL1        0.0000
     11 B           0.6937    4.9312    6.0796 B       1  UNL1        0.0000
     12 B          -0.6613    5.9863    6.5035 B       1  UNL1        0.0000
     13 H          -0.6551    3.7348    0.9778 H       1  UNL1        0.0000
     14 H          -0.2590    2.2683    1.8447 H       1  UNL1        0.0000
     15 H          -1.9206    2.8076    1.7517 H       1  UNL1        0.0000
     16 H          -0.3494    6.8513    2.6843 H       1  UNL1        0.0000
     17 H          -3.0646    5.5320    3.4384 H       1  UNL1        0.0000
     18 H          -2.5334    2.8678    5.0383 H       1  UNL1        0.0000
     19 H           0.5321    2.4288    5.3414 H       1  UNL1        0.0000
     20 H           1.1130    7.4005    5.2984 H       1  UNL1        0.0000
     21 H          -1.8514    7.7725    5.0652 H       1  UNL1        0.0000
     22 H          -3.1927    5.4404    6.4333 H       1  UNL1        0.0000
     23 H          -1.0319    3.6492    7.5425 H       1  UNL1        0.0000
     24 H           1.6193    4.8533    6.8325 H       1  UNL1        0.0000
     25 H          -0.6387    6.6032    7.5221 H       1  UNL1        0.0000
@<TRIPOS>BOND
     1    13     2    1
     2    15     2    1
     3    14     2    1
     4     2     1    1
     5    16     3    1
     6    17     4    1
     7     3     4    1
     8     3     8    1
     9     3     7    1
    10     4     8    1
    11     4     9    1
    12     8    21    1
    13     8    12    1
    14    18     5    1
    15     5     6    1
    16     5     9    1
    17     5    10    1
    18     7    20    1
    19     7    12    1
    20     6    19    1
    21     6    11    1
    22     6    10    1
    23     9    22    1
    24    11    12    1
    25    11    24    1
    26    12    25    1
    27    10    23    1
    28     1     5    0
    29     1     4    0
    30     1     3    0
