@<TRIPOS>MOLECULE
8,9,10
 138 147 0 0 0
SMALL
GASTEIGER

@<TRIPOS>ATOM
      1 SI          9.8270   18.8857    2.8596 Si      1  UNL1        0.0000
      2 SI          7.0218   15.5637    2.0497 Si      1  UNL1        0.0000
      3 SI          5.7634   19.6545    1.6842 Si      1  UNL1        0.0000
      4 SI          7.4978   20.4743    4.1116 Si      1  UNL1        0.0000
      5 SI          8.8497   16.3684    4.3801 Si      1  UNL1        0.0000
      6 SI          4.7737   17.1533    3.2651 Si      1  UNL1        0.0000
      7 SI          6.5229   18.0070    5.6357 Si      1  UNL1        0.0000
      8 O           9.3570   18.6332    1.3707 O.3     1  UNL1        0.0000
      9 O           7.3546   16.6178    0.9193 O.3     1  UNL1        0.0000
     10 O           6.8247   19.2546    0.5930 O.3     1  UNL1        0.0000
     11 O           6.4162   20.4989    2.9217 O.3     1  UNL1        0.0000
     12 O           8.9695   20.0645    3.5981 O.3     1  UNL1        0.0000
     13 O           9.7870   17.5334    3.7777 O.3     1  UNL1        0.0000
     14 O           8.1794   15.4939    3.2032 O.3     1  UNL1        0.0000
     15 O           5.5784   15.8476    2.7630 O.3     1  UNL1        0.0000
     16 O           4.9176   18.3590    2.2120 O.3     1  UNL1        0.0000
     17 O           6.9915   19.5225    5.3233 O.3     1  UNL1        0.0000
     18 O           7.7375   16.9705    5.3918 O.3     1  UNL1        0.0000
     19 O           5.2299   17.5957    4.7561 O.3     1  UNL1        0.0000
     20 C          11.6504   19.4641    2.8986 C.3     1  UNL1        0.0000
     21 H          11.7200   20.4707    2.4691 H       1  UNL1        0.0000
     22 C          12.2066   19.5354    4.3217 C.3     1  UNL1        0.0000
     23 H          11.5909   20.2076    4.9204 H       1  UNL1        0.0000
     24 H          12.1475   18.5440    4.7721 H       1  UNL1        0.0000
     25 C          13.6578   20.0107    4.3227 C.3     1  UNL1        0.0000
     26 H          14.0401   20.0403    5.3458 H       1  UNL1        0.0000
     27 H          13.7085   21.0246    3.9180 H       1  UNL1        0.0000
     28 C          14.5242   19.0862    3.4724 C.3     1  UNL1        0.0000
     29 H          15.5571   19.4431    3.4644 H       1  UNL1        0.0000
     30 H          14.5187   18.0852    3.9086 H       1  UNL1        0.0000
     31 C          13.9831   19.0143    2.0474 C.3     1  UNL1        0.0000
     32 H          14.5932   18.3327    1.4501 H       1  UNL1        0.0000
     33 H          14.0412   20.0052    1.5899 H       1  UNL1        0.0000
     34 C          12.5323   18.5396    2.0560 C.3     1  UNL1        0.0000
     35 H          12.4849   17.5326    2.4718 H       1  UNL1        0.0000
     36 H          12.1423   18.4842    1.0364 H       1  UNL1        0.0000
     37 C           6.9336   13.7924    1.3367 C.3     1  UNL1        0.0000
     38 H           6.1110   13.7299    0.6141 H       1  UNL1        0.0000
     39 C           8.2288   13.4504    0.5969 C.3     1  UNL1        0.0000
     40 H           8.4244   14.1990   -0.1753 H       1  UNL1        0.0000
     41 H           9.0574   13.4918    1.3048 H       1  UNL1        0.0000
     42 C           8.1621   12.0548   -0.0181 C.3     1  UNL1        0.0000
     43 H           7.3581   12.0186   -0.7574 H       1  UNL1        0.0000
     44 H           9.1000   11.8299   -0.5312 H       1  UNL1        0.0000
     45 C           7.8979   11.0130    1.0651 C.3     1  UNL1        0.0000
     46 H           8.7308   11.0118    1.7710 H       1  UNL1        0.0000
     47 H           7.8326   10.0168    0.6204 H       1  UNL1        0.0000
     48 C           6.6073   11.3388    1.8108 C.3     1  UNL1        0.0000
     49 H           5.7663   11.2840    1.1152 H       1  UNL1        0.0000
     50 H           6.4380   10.6003    2.5979 H       1  UNL1        0.0000
     51 C           6.6756   12.7394    2.4158 C.3     1  UNL1        0.0000
     52 H           7.4816   12.7829    3.1490 H       1  UNL1        0.0000
     53 H           5.7438   12.9703    2.9331 H       1  UNL1        0.0000
     54 C           4.4003   20.8466    1.0439 C.3     1  UNL1        0.0000
     55 H           3.8383   20.3729    0.2302 H       1  UNL1        0.0000
     56 C           3.4029   21.1560    2.1627 C.3     1  UNL1        0.0000
     57 H           3.9400   21.6187    2.9913 H       1  UNL1        0.0000
     58 H           2.9734   20.2224    2.5263 H       1  UNL1        0.0000
     59 C           2.2969   22.0921    1.6818 C.3     1  UNL1        0.0000
     60 H           1.7284   21.6063    0.8848 H       1  UNL1        0.0000
     61 H           1.6072   22.3060    2.5013 H       1  UNL1        0.0000
     62 C           2.8926   23.3931    1.1537 C.3     1  UNL1        0.0000
     63 H           3.4184   23.9032    1.9631 H       1  UNL1        0.0000
     64 H           2.0992   24.0546    0.7972 H       1  UNL1        0.0000
     65 C           3.8745   23.0996    0.0246 C.3     1  UNL1        0.0000
     66 H           3.3384   22.6344   -0.8066 H       1  UNL1        0.0000
     67 H           4.3134   24.0319   -0.3397 H       1  UNL1        0.0000
     68 C           4.9763   22.1586    0.5077 C.3     1  UNL1        0.0000
     69 H           5.6684   21.9538   -0.3132 H       1  UNL1        0.0000
     70 H           5.5430   22.6409    1.3052 H       1  UNL1        0.0000
     71 C           7.6523   22.2410    4.7940 C.3     1  UNL1        0.0000
     72 H           6.6734   22.5793    5.1481 H       1  UNL1        0.0000
     73 C           8.6176   22.2963    5.9793 C.3     1  UNL1        0.0000
     74 H           9.5988   21.9518    5.6497 H       1  UNL1        0.0000
     75 H           8.2723   21.6164    6.7587 H       1  UNL1        0.0000
     76 C           8.7338   23.7141    6.5331 C.3     1  UNL1        0.0000
     77 H           7.7601   24.0378    6.9079 H       1  UNL1        0.0000
     78 H           9.4370   23.7319    7.3690 H       1  UNL1        0.0000
     79 C           9.1984   24.6754    5.4437 C.3     1  UNL1        0.0000
     80 H           9.2643   25.6910    5.8419 H       1  UNL1        0.0000
     81 H          10.1942   24.3816    5.1053 H       1  UNL1        0.0000
     82 C           8.2345   24.6380    4.2621 C.3     1  UNL1        0.0000
     83 H           8.5806   25.3157    3.4776 H       1  UNL1        0.0000
     84 H           7.2504   24.9806    4.5900 H       1  UNL1        0.0000
     85 C           8.1193   23.2181    3.7129 C.3     1  UNL1        0.0000
     86 H           9.0906   22.8898    3.3395 H       1  UNL1        0.0000
     87 H           7.4195   23.1959    2.8761 H       1  UNL1        0.0000
     88 C           9.9546   15.2210    5.4196 C.3     1  UNL1        0.0000
     89 H           9.3456   14.3965    5.8053 H       1  UNL1        0.0000
     90 C          11.0892   14.6103    4.5946 C.3     1  UNL1        0.0000
     91 H          10.6652   14.0577    3.7548 H       1  UNL1        0.0000
     92 H          11.7025   15.4183    4.1917 H       1  UNL1        0.0000
     93 C          11.9583   13.6855    5.4436 C.3     1  UNL1        0.0000
     94 H          12.7691   13.2735    4.8374 H       1  UNL1        0.0000
     95 H          11.3538   12.8504    5.8049 H       1  UNL1        0.0000
     96 C          12.5345   14.4418    6.6363 C.3     1  UNL1        0.0000
     97 H          13.1425   13.7705    7.2479 H       1  UNL1        0.0000
     98 H          13.1808   15.2453    6.2763 H       1  UNL1        0.0000
     99 C          11.4083   15.0387    7.4744 C.3     1  UNL1        0.0000
    100 H          11.8264   15.5928    8.3182 H       1  UNL1        0.0000
    101 H          10.7923   14.2310    7.8766 H       1  UNL1        0.0000
    102 C          10.5408   15.9625    6.6230 C.3     1  UNL1        0.0000
    103 H           9.7290   16.3729    7.2243 H       1  UNL1        0.0000
    104 H          11.1412   16.8006    6.2660 H       1  UNL1        0.0000
    105 C           2.9383   16.6722    3.3511 C.3     1  UNL1        0.0000
    106 H           2.3677   17.5156    3.7528 H       1  UNL1        0.0000
    107 C           2.3780   16.3512    1.9639 C.3     1  UNL1        0.0000
    108 H           2.9432   15.5183    1.5419 H       1  UNL1        0.0000
    109 H           2.5169   17.2137    1.3100 H       1  UNL1        0.0000
    110 C           0.8988   15.9801    2.0373 C.3     1  UNL1        0.0000
    111 H           0.3304   16.8332    2.4147 H       1  UNL1        0.0000
    112 H           0.5225   15.7420    1.0393 H       1  UNL1        0.0000
    113 C           0.6939   14.7886    2.9674 C.3     1  UNL1        0.0000
    114 H          -0.3681   14.5375    3.0270 H       1  UNL1        0.0000
    115 H           1.2223   13.9221    2.5643 H       1  UNL1        0.0000
    116 C           1.2363   15.1062    4.3572 C.3     1  UNL1        0.0000
    117 H           1.1019   14.2439    5.0144 H       1  UNL1        0.0000
    118 H           0.6735   15.9411    4.7811 H       1  UNL1        0.0000
    119 C           2.7148   15.4791    4.2815 C.3     1  UNL1        0.0000
    120 H           3.0908   15.7224    5.2757 H       1  UNL1        0.0000
    121 H           3.2883   14.6295    3.9084 H       1  UNL1        0.0000
    122 C           6.0549   17.8961    7.4713 C.3     1  UNL1        0.0000
    123 H           5.1517   18.4875    7.6533 H       1  UNL1        0.0000
    124 C           5.7518   16.4512    7.8760 C.3     1  UNL1        0.0000
    125 H           6.6369   15.8406    7.6917 H       1  UNL1        0.0000
    126 H           4.9463   16.0614    7.2524 H       1  UNL1        0.0000
    127 C           5.3652   16.3602    9.3500 C.3     1  UNL1        0.0000
    128 H           4.4497   16.9314    9.5210 H       1  UNL1        0.0000
    129 H           5.1662   15.3203    9.6198 H       1  UNL1        0.0000
    130 C           6.4791   16.9207   10.2285 C.3     1  UNL1        0.0000
    131 H           7.3805   16.3187   10.0953 H       1  UNL1        0.0000
    132 H           6.1905   16.8658   11.2811 H       1  UNL1        0.0000
    133 C           6.7776   18.3658    9.8422 C.3     1  UNL1        0.0000
    134 H           7.5870   18.7573   10.4630 H       1  UNL1        0.0000
    135 H           5.8908   18.9776   10.0233 H       1  UNL1        0.0000
    136 C           7.1621   18.4555    8.3676 C.3     1  UNL1        0.0000
    137 H           7.3602   19.4923    8.0941 H       1  UNL1        0.0000
    138 H           8.0783   17.8884    8.1953 H       1  UNL1        0.0000
@<TRIPOS>BOND
     1    66    65    1
     2    43    42    1
     3    44    42    1
     4    67    65    1
     5    69    68    1
     6    40    39    1
     7    42    39    1
     8    42    45    1
     9    65    68    1
    10    65    62    1
    11    55    54    1
    12    68    54    1
    13    68    70    1
    14    10     3    1
    15    39    41    1
    16    39    37    1
    17    38    37    1
    18    47    45    1
    19    64    62    1
    20    60    59    1
    21     9     2    1
    22    36    34    1
    23   112   110    1
    24    54     3    1
    25    54    56    1
    26    45    46    1
    27    45    48    1
    28    49    48    1
    29    62    59    1
    30    62    63    1
    31   109   107    1
    32    37     2    1
    33    37    51    1
    34     8     1    1
    35    32    31    1
    36   108   107    1
    37    33    31    1
    38    59    56    1
    39    59    61    1
    40     3    16    1
    41     3    11    1
    42    48    51    1
    43    48    50    1
    44   107   110    1
    45   107   105    1
    46   110   111    1
    47   110   113    1
    48    31    34    1
    49    31    28    1
    50     2    15    1
    51     2    14    1
    52    34    35    1
    53    34    20    1
    54    56    58    1
    55    56    57    1
    56    16     6    1
    57    51    53    1
    58    51    52    1
    59    21    20    1
    60   115   113    1
    61    15     6    1
    62     1    20    1
    63     1    12    1
    64     1    13    1
    65    87    85    1
    66    20    22    1
    67    11     4    1
    68   113   114    1
    69   113   116    1
    70    14     5    1
    71     6   105    1
    72     6    19    1
    73    86    85    1
    74   105   106    1
    75   105   119    1
    76    29    28    1
    77    28    30    1
    78    28    25    1
    79    83    82    1
    80    12     4    1
    81    85    82    1
    82    85    71    1
    83    91    90    1
    84    13     5    1
    85   121   119    1
    86    27    25    1
    87     4    71    1
    88     4    17    1
    89    92    90    1
    90    82    84    1
    91    82    79    1
    92   119   116    1
    93   119   120    1
    94    22    25    1
    95    22    24    1
    96    22    23    1
    97    25    26    1
    98   116   118    1
    99   116   117    1
   100     5    18    1
   101     5    88    1
   102    90    88    1
   103    90    93    1
   104    19     7    1
   105    71    72    1
   106    71    73    1
   107    94    93    1
   108    81    79    1
   109    17     7    1
   110    18     7    1
   111    88    89    1
   112    88   102    1
   113    93    95    1
   114    93    96    1
   115    79    80    1
   116    79    76    1
   117     7   122    1
   118    74    73    1
   119    73    76    1
   120    73    75    1
   121   104   102    1
   122    98    96    1
   123    76    77    1
   124    76    78    1
   125   102   103    1
   126   102    99    1
   127    96    97    1
   128    96    99    1
   129   126   124    1
   130   122   123    1
   131   122   124    1
   132   122   136    1
   133    99   101    1
   134    99   100    1
   135   125   124    1
   136   124   127    1
   137   137   136    1
   138   138   136    1
   139   136   133    1
   140   127   128    1
   141   127   129    1
   142   127   130    1
   143   133   135    1
   144   133   130    1
   145   133   134    1
   146   131   130    1
   147   130   132    1
