@<TRIPOS>MOLECULE
1,2,3
 18 18 0 0 0
SMALL
GASTEIGER

@<TRIPOS>ATOM
      1 O           0.5027    5.4254   11.3914 O.3     1  UNL1       -0.2310
      2 O          -1.6518    4.4094   10.1839 O.3     1  UNL1       -0.2310
      3 O           0.1953    5.7045    8.7590 O.3     1  UNL1       -0.2310
      4 C          -0.2146    6.6019   11.5283 C.3     1  UNL1        0.0987
      5 C          -1.7209    6.3088   11.6717 C.3     1  UNL1        0.0060
      6 C          -2.2535    5.6443   10.3869 C.3     1  UNL1        0.0987
      7 C          -2.0119    6.5757    9.1828 C.3     1  UNL1        0.0060
      8 C          -0.5054    6.8665    9.0357 C.3     1  UNL1        0.0987
      9 C           0.0263    7.5299   10.3214 C.3     1  UNL1        0.0060
     10 H           0.1329    7.1180   12.4451 H       1  UNL1        0.0629
     11 H          -2.2665    7.2342   11.8674 H       1  UNL1        0.0317
     12 H          -1.8624    5.6199   12.5107 H       1  UNL1        0.0317
     13 H          -3.3441    5.4828   10.4972 H       1  UNL1        0.0629
     14 H          -2.5627    7.5091    9.3162 H       1  UNL1        0.0317
     15 H          -2.3605    6.0760    8.2734 H       1  UNL1        0.0317
     16 H          -0.3632    7.5693    8.1910 H       1  UNL1        0.0629
     17 H           1.1052    7.6857   10.2122 H       1  UNL1        0.0317
     18 H          -0.4649    8.4920   10.4808 H       1  UNL1        0.0317
@<TRIPOS>BOND
     1    16     8    1
     2    15     7    1
     3     3     8    1
     4     8     7    1
     5     8     9    1
     6     7    14    1
     7     7     6    1
     8     2     6    1
     9    17     9    1
    10     9    18    1
    11     9     4    1
    12     6    13    1
    13     6     5    1
    14     1     4    1
    15     4     5    1
    16     4    10    1
    17     5    11    1
    18     5    12    1
