@<TRIPOS>MOLECULE
2,3,5
 109 114 0 0 0
SMALL
GASTEIGER

@<TRIPOS>ATOM
      1 SI          6.3276   -5.0557    0.5736 Si      1  UNL1        0.0000
      2 O           5.3592   -1.0905   -0.7549 O.3     1  UNL1        0.0000
      3 O           4.8906   -2.1938    1.7904 O.3     1  UNL1        0.0000
      4 O           6.4353   -4.9550    2.2104 O.3     1  UNL1        0.0000
      5 O           6.7639   -3.5467    0.0304 O.3     1  UNL1        0.0000
      6 C           3.5303   -2.5637   -1.1603 C.ar    1  UNL1        0.0000
      7 C           2.7320   -1.9151   -0.0540 C.3     1  UNL1        0.0000
      8 H           1.7130   -1.7147   -0.3951 H       1  UNL1        0.0000
      9 H           3.2199   -0.9683    0.2097 H       1  UNL1        0.0000
     10 C           2.6859   -2.8161    1.1559 C.ar    1  UNL1        0.0000
     11 C           1.5655   -3.5916    1.3854 C.ar    1  UNL1        0.0000
     12 H           0.7397   -3.4994    0.6950 H       1  UNL1        0.0000
     13 C           1.4758   -4.4753    2.4563 C.ar    1  UNL1        0.0000
     14 C           2.5565   -4.5232    3.3218 C.ar    1  UNL1        0.0000
     15 H           2.5364   -5.1750    4.1810 H       1  UNL1        0.0000
     16 C           3.6968   -3.7527    3.1388 C.ar    1  UNL1        0.0000
     17 C           4.7797   -3.8649    4.1907 C.3     1  UNL1        0.0000
     18 H           4.9328   -4.9298    4.3952 H       1  UNL1        0.0000
     19 H           4.4066   -3.4007    5.1103 H       1  UNL1        0.0000
     20 C           6.1132   -3.2625    3.8518 C.ar    1  UNL1        0.0000
     21 C           6.6098   -2.1799    4.5591 C.ar    1  UNL1        0.0000
     22 H           5.9797   -1.7446    5.3220 H       1  UNL1        0.0000
     23 C           7.8896   -1.6736    4.3410 C.ar    1  UNL1        0.0000
     24 C           8.6597   -2.2797    3.3614 C.ar    1  UNL1        0.0000
     25 H           9.6650   -1.9402    3.1745 H       1  UNL1        0.0000
     26 C           8.1923   -3.3600    2.6170 C.ar    1  UNL1        0.0000
     27 C           9.1226   -4.0714    1.6677 C.3     1  UNL1        0.0000
     28 H           8.8611   -5.1337    1.6590 H       1  UNL1        0.0000
     29 H          10.1354   -3.9949    2.0728 H       1  UNL1        0.0000
     30 C           9.1618   -3.5533    0.2462 C.ar    1  UNL1        0.0000
     31 C          10.4122   -3.3728   -0.3316 C.ar    1  UNL1        0.0000
     32 H          11.2769   -3.6025    0.2702 H       1  UNL1        0.0000
     33 C          10.5679   -2.9276   -1.6347 C.ar    1  UNL1        0.0000
     34 C           9.4099   -2.6151   -2.3323 C.ar    1  UNL1        0.0000
     35 H           9.4800   -2.2304   -3.3388 H       1  UNL1        0.0000
     36 C           8.1356   -2.7754   -1.7998 C.ar    1  UNL1        0.0000
     37 C           6.9906   -2.3134   -2.6783 C.3     1  UNL1        0.0000
     38 H           6.9738   -1.2181   -2.5994 H       1  UNL1        0.0000
     39 H           7.2408   -2.5686   -3.7126 H       1  UNL1        0.0000
     40 C           5.6000   -2.8013   -2.3809 C.ar    1  UNL1        0.0000
     41 C           5.0288   -3.8304   -3.1056 C.ar    1  UNL1        0.0000
     42 H           5.6348   -4.3094   -3.8619 H       1  UNL1        0.0000
     43 C           3.7132   -4.2432   -2.9043 C.ar    1  UNL1        0.0000
     44 C           2.9874   -3.5922   -1.9163 C.ar    1  UNL1        0.0000
     45 H           1.9702   -3.8793   -1.7043 H       1  UNL1        0.0000
     46 C           4.8427   -2.1305   -1.4012 C.ar    1  UNL1        0.0000
     47 C           3.7982   -2.8996    2.0272 C.ar    1  UNL1        0.0000
     48 C           6.9210   -3.8591    2.8793 C.ar    1  UNL1        0.0000
     49 C           8.0123   -3.2797   -0.5030 C.ar    1  UNL1        0.0000
     50 C           3.1208   -5.3360   -3.7832 C.3     1  UNL1        0.0000
     51 C           3.0609   -4.8140   -5.2264 C.3     1  UNL1        0.0000
     52 H           2.4590   -3.9091   -5.2729 H       1  UNL1        0.0000
     53 H           2.6160   -5.5605   -5.8815 H       1  UNL1        0.0000
     54 H           4.0550   -4.5797   -5.5973 H       1  UNL1        0.0000
     55 C           3.9952   -6.5971   -3.7334 C.3     1  UNL1        0.0000
     56 H           4.0112   -7.0091   -2.7263 H       1  UNL1        0.0000
     57 H           5.0179   -6.3876   -4.0332 H       1  UNL1        0.0000
     58 H           3.5936   -7.3539   -4.4048 H       1  UNL1        0.0000
     59 C           1.7053   -5.7310   -3.3529 C.3     1  UNL1        0.0000
     60 H           1.0182   -4.8947   -3.4542 H       1  UNL1        0.0000
     61 H           1.6955   -6.0787   -2.3223 H       1  UNL1        0.0000
     62 H           1.3447   -6.5390   -3.9866 H       1  UNL1        0.0000
     63 C           0.2314   -5.3336    2.6187 C.3     1  UNL1        0.0000
     64 C          -0.9923   -4.4247    2.7984 C.3     1  UNL1        0.0000
     65 H          -1.1305   -3.7744    1.9394 H       1  UNL1        0.0000
     66 H          -0.8691   -3.8007    3.6809 H       1  UNL1        0.0000
     67 H          -1.8921   -5.0243    2.9211 H       1  UNL1        0.0000
     68 C           0.0582   -6.1966    1.3604 C.3     1  UNL1        0.0000
     69 H          -0.0864   -5.5819    0.4766 H       1  UNL1        0.0000
     70 H          -0.8067   -6.8486    1.4663 H       1  UNL1        0.0000
     71 H           0.9410   -6.8133    1.2053 H       1  UNL1        0.0000
     72 C           0.3142   -6.2679    3.8284 C.3     1  UNL1        0.0000
     73 H           0.4076   -5.7029    4.7527 H       1  UNL1        0.0000
     74 H           1.1586   -6.9471    3.7386 H       1  UNL1        0.0000
     75 H          -0.5939   -6.8647    3.8897 H       1  UNL1        0.0000
     76 C           8.4028   -0.5306    5.2042 C.3     1  UNL1        0.0000
     77 C           7.5107    0.6918    4.9631 C.3     1  UNL1        0.0000
     78 H           7.4745    0.9032    3.8949 H       1  UNL1        0.0000
     79 H           7.9066    1.5608    5.4857 H       1  UNL1        0.0000
     80 H           6.4983    0.5122    5.3163 H       1  UNL1        0.0000
     81 C           9.8446   -0.1387    4.8728 C.3     1  UNL1        0.0000
     82 H           9.9257    0.2051    3.8458 H       1  UNL1        0.0000
     83 H          10.5251   -0.9728    5.0287 H       1  UNL1        0.0000
     84 H          10.1574    0.6745    5.5253 H       1  UNL1        0.0000
     85 C           8.3494   -0.9447    6.6824 C.3     1  UNL1        0.0000
     86 H           8.7252   -0.1382    7.3087 H       1  UNL1        0.0000
     87 H           8.9651   -1.8262    6.8484 H       1  UNL1        0.0000
     88 H           7.3356   -1.1739    6.9974 H       1  UNL1        0.0000
     89 C          11.9274   -2.7957   -2.3050 C.3     1  UNL1        0.0000
     90 C          12.1471   -1.3448   -2.7502 C.3     1  UNL1        0.0000
     91 H          11.3870   -1.0345   -3.4602 H       1  UNL1        0.0000
     92 H          13.1208   -1.2421   -3.2254 H       1  UNL1        0.0000
     93 H          12.1103   -0.6769   -1.8923 H       1  UNL1        0.0000
     94 C          13.0824   -3.1851   -1.3781 C.3     1  UNL1        0.0000
     95 H          12.9958   -4.2197   -1.0542 H       1  UNL1        0.0000
     96 H          13.1157   -2.5366   -0.5061 H       1  UNL1        0.0000
     97 H          14.0253   -3.0786   -1.9109 H       1  UNL1        0.0000
     98 C          11.9610   -3.7233   -3.5283 C.3     1  UNL1        0.0000
     99 H          11.1938   -3.4526   -4.2481 H       1  UNL1        0.0000
    100 H          11.7938   -4.7543   -3.2236 H       1  UNL1        0.0000
    101 H          12.9292   -3.6614   -4.0207 H       1  UNL1        0.0000
    102 C           4.5650   -5.5893    0.1505 C.3     1  UNL1        0.0000
    103 H           4.4452   -5.7261   -0.9170 H       1  UNL1        0.0000
    104 H           3.8054   -4.8939    0.4837 H       1  UNL1        0.0000
    105 H           4.3734   -6.5412    0.6354 H       1  UNL1        0.0000
    106 C           7.4940   -6.3826   -0.1592 C.3     1  UNL1        0.0000
    107 H           6.9785   -6.9260   -0.9443 H       1  UNL1        0.0000
    108 H           7.7900   -7.1121    0.5888 H       1  UNL1        0.0000
    109 H           8.3964   -5.9646   -0.5973 H       1  UNL1        0.0000
@<TRIPOS>BOND
     1    53    51    1
     2    54    51    1
     3    52    51    1
     4    51    50    1
     5    58    55    1
     6    99    98    1
     7    57    55    1
     8   101    98    1
     9    62    59    1
    10    42    41    1
    11    50    55    1
    12    50    59    1
    13    50    43    1
    14    55    56    1
    15    39    37    1
    16    98   100    1
    17    98    89    1
    18    91    90    1
    19    60    59    1
    20    59    61    1
    21    35    34    1
    22    92    90    1
    23    41    43   ar
    24    41    40   ar
    25    43    44   ar
    26    90    89    1
    27    90    93    1
    28    37    38    1
    29    37    40    1
    30    37    36    1
    31    40    46   ar
    32    34    36   ar
    33    34    33   ar
    34    89    33    1
    35    89    94    1
    36    44    45    1
    37    44     6   ar
    38    97    94    1
    39    36    49   ar
    40    33    31   ar
    41    46     6   ar
    42    46     2    1
    43    94    95    1
    44    94    96    1
    45     6     7    1
    46   107   106    1
    47   103   102    1
    48   109   106    1
    49    49     5    1
    50    49    30   ar
    51     8     7    1
    52    31    30   ar
    53    31    32    1
    54   106     1    1
    55   106   108    1
    56     7     9    1
    57     7    10    1
    58     5     1    1
    59   102   104    1
    60   102     1    1
    61   102   105    1
    62    30    27    1
    63    69    68    1
    64     1     4    1
    65    12    11    1
    66    10    11   ar
    67    10    47   ar
    68    71    68    1
    69    68    70    1
    70    68    63    1
    71    11    13   ar
    72    28    27    1
    73    27    29    1
    74    27    26    1
    75     3    47    1
    76    65    64    1
    77    47    16   ar
    78     4    48    1
    79    13    63    1
    80    13    14   ar
    81    26    48   ar
    82    26    24   ar
    83    63    64    1
    84    63    72    1
    85    64    67    1
    86    64    66    1
    87    48    20   ar
    88    16    14   ar
    89    16    17    1
    90    25    24    1
    91    14    15    1
    92    24    23   ar
    93    74    72    1
    94    72    75    1
    95    72    73    1
    96    82    81    1
    97    20    17    1
    98    20    21   ar
    99    78    77    1
   100    17    18    1
   101    17    19    1
   102    23    21   ar
   103    23    76    1
   104    21    22    1
   105    81    83    1
   106    81    76    1
   107    81    84    1
   108    77    76    1
   109    77    80    1
   110    77    79    1
   111    76    85    1
   112    85    87    1
   113    85    88    1
   114    85    86    1
