@<TRIPOS>MOLECULE
1,2,3,4
 100 108 0 0 0
SMALL
GASTEIGER

@<TRIPOS>ATOM
      1 P          13.7129    2.7370   11.6706 P.3     1  UNL1        0.0000
      2 P          13.0438    3.6235   15.0899 P.3     1  UNL1        0.0000
      3 P          14.3487    6.7108   13.9617 P.3     1  UNL1        0.0000
      4 SI         15.7512    4.0707   13.6317 Si      1  UNL1        0.0000
      5 C          16.3282    2.5793   12.5888 C.ar    1  UNL1        0.0000
      6 C          17.6006    2.0317   12.6248 C.ar    1  UNL1        0.0000
      7 H          18.3175    2.4021   13.3412 H       1  UNL1        0.0000
      8 C          17.9611    1.0176   11.7540 C.ar    1  UNL1        0.0000
      9 H          18.9554    0.5993   11.7941 H       1  UNL1        0.0000
     10 C          17.0559    0.5574   10.8100 C.ar    1  UNL1        0.0000
     11 H          17.3494   -0.2050   10.1044 H       1  UNL1        0.0000
     12 C          15.7748    1.0781   10.7692 C.ar    1  UNL1        0.0000
     13 H          15.0737    0.7421   10.0166 H       1  UNL1        0.0000
     14 C          15.4035    2.0628   11.6802 C.ar    1  UNL1        0.0000
     15 C          13.4815    3.0791    9.8934 C.ar    1  UNL1        0.0000
     16 C          12.3546    2.6879    9.1808 C.ar    1  UNL1        0.0000
     17 H          11.5630    2.1355    9.6663 H       1  UNL1        0.0000
     18 C          12.2481    3.0010    7.8358 C.ar    1  UNL1        0.0000
     19 H          11.3720    2.6930    7.2854 H       1  UNL1        0.0000
     20 C          13.2574    3.7020    7.1989 C.ar    1  UNL1        0.0000
     21 H          13.1695    3.9415    6.1503 H       1  UNL1        0.0000
     22 C          14.3816    4.0966    7.9090 C.ar    1  UNL1        0.0000
     23 H          15.1702    4.6433    7.4146 H       1  UNL1        0.0000
     24 C          14.4935    3.7908    9.2508 C.ar    1  UNL1        0.0000
     25 H          15.3659    4.0993    9.8127 H       1  UNL1        0.0000
     26 C          12.5692    1.3429   11.9199 C.ar    1  UNL1        0.0000
     27 C          11.2293    1.6729   12.1133 C.ar    1  UNL1        0.0000
     28 H          10.9452    2.7162   12.1828 H       1  UNL1        0.0000
     29 C          10.2716    0.6825   12.2115 C.ar    1  UNL1        0.0000
     30 H           9.2347    0.9462   12.3556 H       1  UNL1        0.0000
     31 C          10.6459   -0.6485   12.1182 C.ar    1  UNL1        0.0000
     32 H           9.8990   -1.4243   12.1845 H       1  UNL1        0.0000
     33 C          11.9787   -0.9815   11.9480 C.ar    1  UNL1        0.0000
     34 H          12.2720   -2.0186   11.8867 H       1  UNL1        0.0000
     35 C          12.9431    0.0069   11.8552 C.ar    1  UNL1        0.0000
     36 H          13.9816   -0.2660   11.7445 H       1  UNL1        0.0000
     37 C          15.7803    3.5285   15.4688 C.ar    1  UNL1        0.0000
     38 C          16.9374    3.2820   16.1951 C.ar    1  UNL1        0.0000
     39 H          17.8980    3.4807   15.7432 H       1  UNL1        0.0000
     40 C          16.8681    2.7894   17.4860 C.ar    1  UNL1        0.0000
     41 H          17.7733    2.6127   18.0471 H       1  UNL1        0.0000
     42 C          15.6365    2.4880   18.0482 C.ar    1  UNL1        0.0000
     43 H          15.5836    2.0592   19.0377 H       1  UNL1        0.0000
     44 C          14.4730    2.7263   17.3401 C.ar    1  UNL1        0.0000
     45 H          13.5160    2.4497   17.7614 H       1  UNL1        0.0000
     46 C          14.5440    3.2935   16.0706 C.ar    1  UNL1        0.0000
     47 C          12.3551    1.9324   15.1712 C.ar    1  UNL1        0.0000
     48 C          13.2347    0.8891   14.8870 C.ar    1  UNL1        0.0000
     49 H          14.2484    1.1126   14.5742 H       1  UNL1        0.0000
     50 C          12.8244   -0.4222   15.0198 C.ar    1  UNL1        0.0000
     51 H          13.5177   -1.2246   14.8180 H       1  UNL1        0.0000
     52 C          11.5275   -0.7060   15.4176 C.ar    1  UNL1        0.0000
     53 H          11.2091   -1.7309   15.5298 H       1  UNL1        0.0000
     54 C          10.6426    0.3266   15.6725 C.ar    1  UNL1        0.0000
     55 H           9.6304    0.1095   15.9785 H       1  UNL1        0.0000
     56 C          11.0513    1.6438   15.5536 C.ar    1  UNL1        0.0000
     57 H          10.3553    2.4397   15.7754 H       1  UNL1        0.0000
     58 C          11.8929    4.5183   16.1827 C.ar    1  UNL1        0.0000
     59 C          12.1470    4.8385   17.5095 C.ar    1  UNL1        0.0000
     60 H          13.1108    4.6337   17.9495 H       1  UNL1        0.0000
     61 C          11.1657    5.4503   18.2715 C.ar    1  UNL1        0.0000
     62 H          11.3668    5.6821   19.3065 H       1  UNL1        0.0000
     63 C           9.9381    5.7659   17.7163 C.ar    1  UNL1        0.0000
     64 H           9.1771    6.2398   18.3172 H       1  UNL1        0.0000
     65 C           9.6904    5.4810   16.3826 C.ar    1  UNL1        0.0000
     66 H           8.7402    5.7378   15.9387 H       1  UNL1        0.0000
     67 C          10.6621    4.8599   15.6228 C.ar    1  UNL1        0.0000
     68 H          10.4696    4.6293   14.5821 H       1  UNL1        0.0000
     69 C          16.8548    5.6202   13.5441 C.ar    1  UNL1        0.0000
     70 C          18.2269    5.6626   13.3687 C.ar    1  UNL1        0.0000
     71 H          18.7724    4.7441   13.2149 H       1  UNL1        0.0000
     72 C          18.9005    6.8734   13.3706 C.ar    1  UNL1        0.0000
     73 H          19.9697    6.8967   13.2235 H       1  UNL1        0.0000
     74 C          18.2023    8.0551   13.5559 C.ar    1  UNL1        0.0000
     75 H          18.7257    8.9991   13.5548 H       1  UNL1        0.0000
     76 C          16.8287    8.0322   13.7330 C.ar    1  UNL1        0.0000
     77 H          16.2883    8.9586   13.8632 H       1  UNL1        0.0000
     78 C          16.1574    6.8174   13.7228 C.ar    1  UNL1        0.0000
     79 C          13.7461    8.2716   13.2366 C.ar    1  UNL1        0.0000
     80 C          13.2693    8.2871   11.9297 C.ar    1  UNL1        0.0000
     81 H          13.2117    7.3655   11.3678 H       1  UNL1        0.0000
     82 C          12.8710    9.4751   11.3432 C.ar    1  UNL1        0.0000
     83 H          12.4989    9.4731   10.3300 H       1  UNL1        0.0000
     84 C          12.9489   10.6612   12.0532 C.ar    1  UNL1        0.0000
     85 H          12.6351   11.5876   11.5975 H       1  UNL1        0.0000
     86 C          13.4316   10.6558   13.3521 C.ar    1  UNL1        0.0000
     87 H          13.4985   11.5783   13.9089 H       1  UNL1        0.0000
     88 C          13.8308    9.4717   13.9438 C.ar    1  UNL1        0.0000
     89 H          14.1984    9.4819   14.9606 H       1  UNL1        0.0000
     90 C          14.1707    7.0091   15.7439 C.ar    1  UNL1        0.0000
     91 C          15.1899    6.6758   16.6296 C.ar    1  UNL1        0.0000
     92 H          16.0966    6.2167   16.2610 H       1  UNL1        0.0000
     93 C          15.0479    6.9553   17.9771 C.ar    1  UNL1        0.0000
     94 H          15.8429    6.7013   18.6621 H       1  UNL1        0.0000
     95 C          13.9000    7.5759   18.4424 C.ar    1  UNL1        0.0000
     96 H          13.8043    7.8164   19.4901 H       1  UNL1        0.0000
     97 C          12.8729    7.8873   17.5644 C.ar    1  UNL1        0.0000
     98 H          11.9759    8.3664   17.9265 H       1  UNL1        0.0000
     99 C          12.9970    7.5888   16.2213 C.ar    1  UNL1        0.0000
    100 H          12.1951    7.8202   15.5322 H       1  UNL1        0.0000
@<TRIPOS>BOND
     1    21    20    1
     2    20    18   ar
     3    20    22   ar
     4    19    18    1
     5    23    22    1
     6    18    16   ar
     7    22    24   ar
     8    16    17    1
     9    16    15   ar
    10    24    25    1
    11    24    15   ar
    12    15     1    1
    13    13    12    1
    14    11    10    1
    15    83    82    1
    16    12    10   ar
    17    12    14   ar
    18    10     8   ar
    19    82    80   ar
    20    82    84   ar
    21    81    80    1
    22    85    84    1
    23     1    14    1
    24     1    26    1
    25    14     5   ar
    26    36    35    1
    27     8     9    1
    28     8     6   ar
    29    35    26   ar
    30    35    33   ar
    31    34    33    1
    32    26    27   ar
    33    80    79   ar
    34    33    31   ar
    35    84    86   ar
    36    27    28    1
    37    27    29   ar
    38    31    32    1
    39    31    29   ar
    40    29    30    1
    41     5     6   ar
    42     5     4    1
    43     6     7    1
    44    71    70    1
    45    73    72    1
    46    79    88   ar
    47    79     3    1
    48    86    87    1
    49    86    88   ar
    50    70    72   ar
    51    70    69   ar
    52    72    74   ar
    53    69     4    1
    54    69    78   ar
    55    75    74    1
    56    74    76   ar
    57     4    37    1
    58    78    76   ar
    59    78     3    1
    60    76    77    1
    61    88    89    1
    62     3    90    1
    63    49    48    1
    64    68    67    1
    65    51    50    1
    66    48    50   ar
    67    48    47   ar
    68    50    52   ar
    69     2    47    1
    70     2    46    1
    71     2    58    1
    72    47    56   ar
    73    52    53    1
    74    52    54   ar
    75    37    46   ar
    76    37    38   ar
    77   100    99    1
    78    56    54   ar
    79    56    57    1
    80    67    58   ar
    81    67    65   ar
    82    54    55    1
    83    39    38    1
    84    90    99   ar
    85    90    91   ar
    86    66    65    1
    87    46    44   ar
    88    58    59   ar
    89    38    40   ar
    90    99    97   ar
    91    92    91    1
    92    65    63   ar
    93    91    93   ar
    94    44    45    1
    95    44    42   ar
    96    40    41    1
    97    40    42   ar
    98    59    60    1
    99    59    61   ar
   100    97    98    1
   101    97    95   ar
   102    63    61   ar
   103    63    64    1
   104    93    95   ar
   105    93    94    1
   106    42    43    1
   107    61    62    1
   108    95    96    1
