@<TRIPOS>MOLECULE
1,2,33,64
 94 96 0 0 0
SMALL
GASTEIGER

@<TRIPOS>ATOM
      1 SI          9.0919    5.2491    7.3536 Si      1  UNL1        0.0000
      2 P           7.0378    4.2857    5.3953 P.3     1  UNL1        0.0000
      3 C           6.3503    4.7314    7.0495 C.ar    1  UNL1        0.0000
      4 C           6.7698    2.4066    5.5780 C.3     1  UNL1        0.0000
      5 H           7.1667    1.9912    4.6419 H       1  UNL1        0.0000
      6 C           7.3036    5.0514    8.0237 C.ar    1  UNL1        0.0000
      7 C           5.0023    4.7465    7.3847 C.ar    1  UNL1        0.0000
      8 H           4.2417    4.5489    6.6422 H       1  UNL1        0.0000
      9 C           7.6443    1.9129    6.7220 C.3     1  UNL1        0.0000
     10 H           8.6556    2.2956    6.6065 H       1  UNL1        0.0000
     11 H           7.6839    0.8223    6.7430 H       1  UNL1        0.0000
     12 H           7.2605    2.2618    7.6804 H       1  UNL1        0.0000
     13 C           5.4599    6.1404    4.0832 C.3     1  UNL1        0.0000
     14 H           5.1147    6.5896    5.0130 H       1  UNL1        0.0000
     15 H           4.7585    6.4002    3.2881 H       1  UNL1        0.0000
     16 H           6.4413    6.5526    3.8411 H       1  UNL1        0.0000
     17 C           5.5973    4.6328    4.2259 C.3     1  UNL1        0.0000
     18 H           4.6586    4.2139    4.6017 H       1  UNL1        0.0000
     19 C           5.3480    1.8900    5.7761 C.3     1  UNL1        0.0000
     20 H           4.9046    2.3168    6.6730 H       1  UNL1        0.0000
     21 H           5.3793    0.8057    5.9021 H       1  UNL1        0.0000
     22 H           4.7061    2.1040    4.9250 H       1  UNL1        0.0000
     23 C           6.8921    5.3456    9.3092 C.ar    1  UNL1        0.0000
     24 H           7.6294    5.6043   10.0571 H       1  UNL1        0.0000
     25 C           5.9403    4.0113    2.8767 C.3     1  UNL1        0.0000
     26 H           6.9573    4.3015    2.6085 H       1  UNL1        0.0000
     27 H           5.2588    4.3642    2.1007 H       1  UNL1        0.0000
     28 H           5.8883    2.9242    2.9103 H       1  UNL1        0.0000
     29 C           4.6043    5.0510    8.6769 C.ar    1  UNL1        0.0000
     30 H           3.5496    5.0680    8.9247 H       1  UNL1        0.0000
     31 C           5.5482    5.3372    9.6467 C.ar    1  UNL1        0.0000
     32 H           5.2347    5.5718   10.6566 H       1  UNL1        0.0000
     33 P          10.9536    3.9519    5.3953 P.3     1  UNL1        0.0000
     34 C          10.9114    3.1338    7.0495 C.ar    1  UNL1        0.0000
     35 C          12.7148    4.6596    5.5783 C.3     1  UNL1        0.0000
     36 H          12.8761    5.2109    4.6421 H       1  UNL1        0.0000
     37 C          10.1576    3.7995    8.0237 C.ar    1  UNL1        0.0000
     38 C          11.5723    1.9589    7.3846 C.ar    1  UNL1        0.0000
     39 H          12.1236    1.3990    6.6421 H       1  UNL1        0.0000
     40 C          12.7052    5.6639    6.7222 C.3     1  UNL1        0.0000
     41 H          11.8682    6.3483    6.6066 H       1  UNL1        0.0000
     42 H          13.6300    6.2434    6.7433 H       1  UNL1        0.0000
     43 H          12.5949    5.1570    7.6806 H       1  UNL1        0.0000
     44 C          10.1364    1.6581    4.0831 C.3     1  UNL1        0.0000
     45 H           9.9200    1.1344    5.0129 H       1  UNL1        0.0000
     46 H          10.2623    0.9208    3.2880 H       1  UNL1        0.0000
     47 H           9.2887    2.3019    3.8409 H       1  UNL1        0.0000
     48 C          11.3733    2.5308    4.2259 C.3     1  UNL1        0.0000
     49 H          12.2055    1.9275    4.6019 H       1  UNL1        0.0000
     50 C          13.8730    3.6865    5.7763 C.3     1  UNL1        0.0000
     51 H          13.7251    3.0892    6.6733 H       1  UNL1        0.0000
     52 H          14.7965    4.2558    5.9024 H       1  UNL1        0.0000
     53 H          14.0087    3.0237    4.9252 H       1  UNL1        0.0000
     54 C          10.1085    3.2960    9.3092 C.ar    1  UNL1        0.0000
     55 H           9.5157    3.8050   10.0571 H       1  UNL1        0.0000
     56 C          11.7402    3.1389    2.8769 C.3     1  UNL1        0.0000
     57 H          10.9804    3.8745    2.6085 H       1  UNL1        0.0000
     58 H          11.7754    2.3722    2.1010 H       1  UNL1        0.0000
     59 H          12.7076    3.6375    2.9105 H       1  UNL1        0.0000
     60 C          11.5075    1.4620    8.6769 C.ar    1  UNL1        0.0000
     61 H          12.0201    0.5400    8.9246 H       1  UNL1        0.0000
     62 C          10.7878    2.1363    9.6467 C.ar    1  UNL1        0.0000
     63 H          10.7413    1.7474   10.6566 H       1  UNL1        0.0000
     64 P           9.2847    7.5103    5.3952 P.3     1  UNL1        0.0000
     65 C          10.0144    7.8826    7.0494 C.ar    1  UNL1        0.0000
     66 C           7.7912    8.6817    5.5782 C.3     1  UNL1        0.0000
     67 H           7.2332    8.5456    4.6421 H       1  UNL1        0.0000
     68 C           9.8149    6.8968    8.0235 C.ar    1  UNL1        0.0000
     69 C          10.7015    9.0424    7.3845 C.ar    1  UNL1        0.0000
     70 H          10.9108    9.7998    6.6420 H       1  UNL1        0.0000
     71 C           6.9264    8.1712    6.7223 C.3     1  UNL1        0.0000
     72 H           6.7522    7.1040    6.6067 H       1  UNL1        0.0000
     73 H           5.9620    8.6821    6.7435 H       1  UNL1        0.0000
     74 H           7.4206    8.3291    7.6806 H       1  UNL1        0.0000
     75 C          11.6798    7.9491    4.0829 C.3     1  UNL1        0.0000
     76 H          12.2416    8.0236    5.0126 H       1  UNL1        0.0000
     77 H          12.2553    8.4267    3.2877 H       1  UNL1        0.0000
     78 H          11.5461    6.8931    3.8407 H       1  UNL1        0.0000
     79 C          10.3056    8.5840    4.2257 C.3     1  UNL1        0.0000
     80 H          10.4121    9.6065    4.6015 H       1  UNL1        0.0000
     81 C           8.0548   10.1712    5.7763 C.3     1  UNL1        0.0000
     82 H           8.6462   10.3418    6.6732 H       1  UNL1        0.0000
     83 H           7.1002   10.6864    5.9024 H       1  UNL1        0.0000
     84 H           8.5610   10.6201    4.9251 H       1  UNL1        0.0000
     85 C          10.2755    7.1061    9.3090 C.ar    1  UNL1        0.0000
     86 H          10.1309    6.3383   10.0570 H       1  UNL1        0.0000
     87 C           9.5954    8.5977    2.8767 C.3     1  UNL1        0.0000
     88 H           9.3382    7.5719    2.6084 H       1  UNL1        0.0000
     89 H          10.2419    9.0114    2.1008 H       1  UNL1        0.0000
     90 H           8.6800    9.1863    2.9103 H       1  UNL1        0.0000
     91 C          11.1643    9.2347    8.6768 C.ar    1  UNL1        0.0000
     92 H          11.7065   10.1396    8.9245 H       1  UNL1        0.0000
     93 C          10.9401    8.2742    9.6465 C.ar    1  UNL1        0.0000
     94 H          11.3001    8.4285   10.6565 H       1  UNL1        0.0000
@<TRIPOS>BOND
     1    27    25    1
     2    89    87    1
     3    58    56    1
     4    88    87    1
     5    57    56    1
     6    26    25    1
     7    87    90    1
     8    87    79    1
     9    25    28    1
    10    25    17    1
    11    56    59    1
    12    56    48    1
    13    77    75    1
    14    46    44    1
    15    15    13    1
    16    78    75    1
    17    47    44    1
    18    16    13    1
    19    75    79    1
    20    75    76    1
    21    44    48    1
    22    44    45    1
    23    13    17    1
    24    13    14    1
    25    79    80    1
    26    79    64    1
    27    48    49    1
    28    48    33    1
    29    17    18    1
    30    17     2    1
    31     5     4    1
    32    67    66    1
    33    36    35    1
    34    22    19    1
    35    84    81    1
    36    53    50    1
    37    64    66    1
    38    64    65    1
    39    33    35    1
    40    33    34    1
    41     2     4    1
    42     2     3    1
    43     4    19    1
    44     4     9    1
    45    66    81    1
    46    66    71    1
    47    35    50    1
    48    35    40    1
    49    19    21    1
    50    19    20    1
    51    81    83    1
    52    81    82    1
    53    50    52    1
    54    50    51    1
    55    10     9    1
    56    41    40    1
    57    72    71    1
    58    70    69    1
    59    39    38    1
    60     8     7    1
    61     9    11    1
    62     9    12    1
    63    40    42    1
    64    40    43    1
    65    71    73    1
    66    71    74    1
    67    65    69   ar
    68    65    68   ar
    69     3     7   ar
    70     3     6   ar
    71    34    38   ar
    72    34    37   ar
    73     1    68    1
    74     1     6    1
    75     1    37    1
    76    69    91   ar
    77    38    60   ar
    78     7    29   ar
    79    68    85   ar
    80     6    23   ar
    81    37    54   ar
    82    91    92    1
    83    91    93   ar
    84    60    61    1
    85    60    62   ar
    86    29    30    1
    87    29    31   ar
    88    85    93   ar
    89    85    86    1
    90    23    31   ar
    91    23    24    1
    92    54    62   ar
    93    54    55    1
    94    93    94    1
    95    62    63    1
    96    31    32    1
