@<TRIPOS>MOLECULE
1,2,3,4
 94 96 0 0 0
SMALL
GASTEIGER

@<TRIPOS>ATOM
      1 P           2.6958   10.7983    2.0852 P.3     1  UNL1        0.0000
      2 P           5.4495   10.6391    4.1831 P.3     1  UNL1        0.0000
      3 P           2.7213    7.4845    3.5169 P.3     1  UNL1        0.0000
      4 SI          4.8300    8.7790    2.0091 Si      1  UNL1        0.0000
      5 C           5.4278   12.4826    4.6202 C.3     1  UNL1        0.0000
      6 H           5.5723   12.9697    3.6449 H       1  UNL1        0.0000
      7 C           2.0597    6.8013    5.1313 C.3     1  UNL1        0.0000
      8 H           1.9661    5.7210    4.9731 H       1  UNL1        0.0000
      9 C           6.5471    9.5860    1.9140 C.ar    1  UNL1        0.0000
     10 C           6.7885   10.5069    2.9336 C.ar    1  UNL1        0.0000
     11 C           2.8751   10.0099    0.4424 C.ar    1  UNL1        0.0000
     12 C           2.0795   10.2458   -0.6725 C.ar    1  UNL1        0.0000
     13 H           1.1901   10.8561   -0.6082 H       1  UNL1        0.0000
     14 C           5.0777    6.9154    2.2875 C.ar    1  UNL1        0.0000
     15 C           6.1534    6.1497    1.8785 C.ar    1  UNL1        0.0000
     16 H           6.8953    6.5829    1.2246 H       1  UNL1        0.0000
     17 C           4.2896    8.5830   -0.8784 C.ar    1  UNL1        0.0000
     18 H           5.1353    7.9152   -0.9495 H       1  UNL1        0.0000
     19 C           7.9899   11.2030    2.9635 C.ar    1  UNL1        0.0000
     20 H           8.2014   11.9213    3.7393 H       1  UNL1        0.0000
     21 C           4.7479   12.3492    0.9933 C.3     1  UNL1        0.0000
     22 H           4.7106   11.8650    0.0188 H       1  UNL1        0.0000
     23 H           5.3778   11.7471    1.6432 H       1  UNL1        0.0000
     24 H           5.2151   13.3261    0.8693 H       1  UNL1        0.0000
     25 C           5.3651    4.3107    3.1924 C.ar    1  UNL1        0.0000
     26 H           5.4859    3.3022    3.5629 H       1  UNL1        0.0000
     27 C           6.2958    4.8441    2.3184 C.ar    1  UNL1        0.0000
     28 H           7.1401    4.2501    1.9986 H       1  UNL1        0.0000
     29 C           4.1222    6.3664    3.1465 C.ar    1  UNL1        0.0000
     30 C           1.4380    6.6696    2.3718 C.3     1  UNL1        0.0000
     31 H           0.5101    7.2311    2.5273 H       1  UNL1        0.0000
     32 C           6.9412    8.5282    5.2519 C.3     1  UNL1        0.0000
     33 H           7.4559    8.0951    6.1085 H       1  UNL1        0.0000
     34 H           7.6349    8.5664    4.4138 H       1  UNL1        0.0000
     35 H           6.1189    7.8685    4.9776 H       1  UNL1        0.0000
     36 C           6.4208    9.9173    5.6040 C.3     1  UNL1        0.0000
     37 H           7.2825   10.5822    5.7458 H       1  UNL1        0.0000
     38 C           3.0208    7.0125    6.2924 C.3     1  UNL1        0.0000
     39 H           3.0141    8.0534    6.6042 H       1  UNL1        0.0000
     40 H           4.0361    6.7303    6.0160 H       1  UNL1        0.0000
     41 H           2.7140    6.4051    7.1439 H       1  UNL1        0.0000
     42 C           5.5799    9.8768    6.8720 C.3     1  UNL1        0.0000
     43 H           4.7238    9.2260    6.7198 H       1  UNL1        0.0000
     44 H           5.2068   10.8624    7.1411 H       1  UNL1        0.0000
     45 H           6.1643    9.4888    7.7055 H       1  UNL1        0.0000
     46 C           3.5130    8.8414   -1.9957 C.ar    1  UNL1        0.0000
     47 H           3.7601    8.3926   -2.9471 H       1  UNL1        0.0000
     48 C           0.5799   12.1792    3.3287 C.3     1  UNL1        0.0000
     49 H          -0.4774   12.4439    3.3186 H       1  UNL1        0.0000
     50 H           1.1578   13.0956    3.2269 H       1  UNL1        0.0000
     51 H           0.8022   11.7375    4.2966 H       1  UNL1        0.0000
     52 C           4.2768    5.0643    3.6040 C.ar    1  UNL1        0.0000
     53 H           3.5818    4.6267    4.3059 H       1  UNL1        0.0000
     54 C           6.4715   13.0375    5.5901 C.3     1  UNL1        0.0000
     55 H           6.3424   14.1188    5.6475 H       1  UNL1        0.0000
     56 H           7.4936   12.8488    5.2768 H       1  UNL1        0.0000
     57 H           6.3393   12.6362    6.5915 H       1  UNL1        0.0000
     58 C           2.4004    9.6579   -1.8856 C.ar    1  UNL1        0.0000
     59 H           1.7746    9.8388   -2.7483 H       1  UNL1        0.0000
     60 C           8.9388   10.9876    1.9784 C.ar    1  UNL1        0.0000
     61 H           9.8709   11.5341    2.0061 H       1  UNL1        0.0000
     62 C           1.8656    6.8399    0.9208 C.3     1  UNL1        0.0000
     63 H           2.8327    6.3709    0.7434 H       1  UNL1        0.0000
     64 H           1.9432    7.8893    0.6618 H       1  UNL1        0.0000
     65 H           1.1359    6.3795    0.2549 H       1  UNL1        0.0000
     66 C           3.3486   12.5004    1.5787 C.3     1  UNL1        0.0000
     67 H           3.4245   13.0681    2.5133 H       1  UNL1        0.0000
     68 C           0.1084    9.8953    2.4232 C.3     1  UNL1        0.0000
     69 H           0.5193    9.3762    3.2913 H       1  UNL1        0.0000
     70 H           0.1936    9.2494    1.5509 H       1  UNL1        0.0000
     71 H          -0.9468   10.0944    2.6068 H       1  UNL1        0.0000
     72 C           8.6958   10.0820    0.9598 C.ar    1  UNL1        0.0000
     73 H           9.4367    9.9240    0.1892 H       1  UNL1        0.0000
     74 C           3.9784    9.1545    0.3412 C.ar    1  UNL1        0.0000
     75 C           4.0412   12.8511    5.1448 C.3     1  UNL1        0.0000
     76 H           3.8928   12.4721    6.1540 H       1  UNL1        0.0000
     77 H           3.2626   12.4229    4.5163 H       1  UNL1        0.0000
     78 H           3.9161   13.9335    5.1668 H       1  UNL1        0.0000
     79 C           7.4983    9.3879    0.9314 C.ar    1  UNL1        0.0000
     80 H           7.2959    8.6947    0.1289 H       1  UNL1        0.0000
     81 C           0.8722   11.1908    2.2018 C.3     1  UNL1        0.0000
     82 H           0.5575   11.6308    1.2489 H       1  UNL1        0.0000
     83 C           2.4951   13.3021    0.5979 C.3     1  UNL1        0.0000
     84 H           3.0137   14.2346    0.3741 H       1  UNL1        0.0000
     85 H           1.5189   13.5590    0.9991 H       1  UNL1        0.0000
     86 H           2.3699   12.7638   -0.3384 H       1  UNL1        0.0000
     87 C           1.1449    5.1905    2.6194 C.3     1  UNL1        0.0000
     88 H           0.4611    4.8434    1.8445 H       1  UNL1        0.0000
     89 H           0.6642    5.0087    3.5765 H       1  UNL1        0.0000
     90 H           2.0519    4.5945    2.5495 H       1  UNL1        0.0000
     91 C           0.6797    7.3594    5.4748 C.3     1  UNL1        0.0000
     92 H           0.3141    6.8873    6.3867 H       1  UNL1        0.0000
     93 H          -0.0427    7.1687    4.6838 H       1  UNL1        0.0000
     94 H           0.7277    8.4311    5.6532 H       1  UNL1        0.0000
@<TRIPOS>BOND
     1    47    46    1
     2    59    58    1
     3    46    58   ar
     4    46    17   ar
     5    58    12   ar
     6    18    17    1
     7    17    74   ar
     8    12    13    1
     9    12    11   ar
    10    86    83    1
    11    22    21    1
    12    80    79    1
    13    73    72    1
    14    65    62    1
    15    74    11   ar
    16    74     4    1
    17    84    83    1
    18    11     1    1
    19    83    85    1
    20    83    66    1
    21    64    62    1
    22    63    62    1
    23    24    21    1
    24    62    30    1
    25    79    72   ar
    26    79     9   ar
    27    72    60   ar
    28    21    66    1
    29    21    23    1
    30    16    15    1
    31    82    81    1
    32    70    68    1
    33    66     1    1
    34    66    67    1
    35    88    87    1
    36    15    14   ar
    37    15    27   ar
    38     9     4    1
    39     9    10   ar
    40    60    61    1
    41    60    19   ar
    42    28    27    1
    43     4    14    1
    44     1    81    1
    45    81    68    1
    46    81    48    1
    47    14    29   ar
    48    27    25   ar
    49    30    31    1
    50    30    87    1
    51    30     3    1
    52    68    71    1
    53    68    69    1
    54    90    87    1
    55    87    89    1
    56    10    19   ar
    57    10     2    1
    58    19    20    1
    59    29     3    1
    60    29    52   ar
    61    25    26    1
    62    25    52   ar
    63    50    48    1
    64    49    48    1
    65    48    51    1
    66     3     7    1
    67    52    53    1
    68     6     5    1
    69     2     5    1
    70     2    36    1
    71    34    32    1
    72    77    75    1
    73     5    75    1
    74     5    54    1
    75    93    91    1
    76     8     7    1
    77    35    32    1
    78     7    91    1
    79     7    38    1
    80    75    78    1
    81    75    76    1
    82    32    36    1
    83    32    33    1
    84    56    54    1
    85    91    94    1
    86    91    92    1
    87    54    55    1
    88    54    57    1
    89    36    37    1
    90    36    42    1
    91    40    38    1
    92    38    39    1
    93    38    41    1
    94    43    42    1
    95    42    44    1
    96    42    45    1
