@<TRIPOS>MOLECULE
1,2,3,4
 94 96 0 0 0
SMALL
GASTEIGER

@<TRIPOS>ATOM
      1 P          10.9649    6.2839    8.8520 P.3     1  UNL1        0.0000
      2 P           8.8100    8.7135    7.6702 P.3     1  UNL1        0.0000
      3 P          11.9901   10.0937    6.9130 P.3     1  UNL1        0.0000
      4 SI         10.8714    7.4250    6.0694 Si      1  UNL1        0.0000
      5 C          11.0508    3.6515    7.7557 C.ar    1  UNL1        0.0000
      6 H          11.0886    3.2529    8.7585 H       1  UNL1        0.0000
      7 C          12.7704    6.2485    9.3676 C.3     1  UNL1        0.0000
      8 H          12.8308    6.8624   10.2772 H       1  UNL1        0.0000
      9 C          12.4965    7.9848    5.2421 C.ar    1  UNL1        0.0000
     10 C           9.3116    7.9425    5.1177 C.ar    1  UNL1        0.0000
     11 C          10.9838    5.0220    7.5312 C.ar    1  UNL1        0.0000
     12 C          10.9998    3.2718    5.3847 C.ar    1  UNL1        0.0000
     13 H          10.9942    2.5883    4.5493 H       1  UNL1        0.0000
     14 C           8.4007    8.6712    5.8908 C.ar    1  UNL1        0.0000
     15 C          13.0729    9.1420    5.7814 C.ar    1  UNL1        0.0000
     16 C          10.9396    5.5249    6.2276 C.ar    1  UNL1        0.0000
     17 C           7.5896    7.4148    8.2637 C.3     1  UNL1        0.0000
     18 H           7.9242    7.1860    9.2839 H       1  UNL1        0.0000
     19 C          13.4958    6.9676    8.2363 C.3     1  UNL1        0.0000
     20 H          13.0129    7.9416    8.0445 H       1  UNL1        0.0000
     21 H          13.4640    6.3762    7.3213 H       1  UNL1        0.0000
     22 H          14.5404    7.1495    8.4862 H       1  UNL1        0.0000
     23 C          10.2141    5.4219   10.3420 C.3     1  UNL1        0.0000
     24 H          10.9775    4.6900   10.6326 H       1  UNL1        0.0000
     25 C          13.1980    7.2608    4.2938 C.ar    1  UNL1        0.0000
     26 H          12.7610    6.3654    3.8803 H       1  UNL1        0.0000
     27 C           7.2594    9.2029    5.3039 C.ar    1  UNL1        0.0000
     28 H           6.5607    9.7980    5.8733 H       1  UNL1        0.0000
     29 C          14.4575    7.6644    3.8828 C.ar    1  UNL1        0.0000
     30 H          14.9935    7.0947    3.1389 H       1  UNL1        0.0000
     31 C           7.0232    8.9944    3.9538 C.ar    1  UNL1        0.0000
     32 H           6.1396    9.4138    3.4966 H       1  UNL1        0.0000
     33 C          11.0655    2.7814    6.6784 C.ar    1  UNL1        0.0000
     34 H          11.1200    1.7172    6.8519 H       1  UNL1        0.0000
     35 C          11.4630   11.4460    5.6972 C.3     1  UNL1        0.0000
     36 H          10.8286   12.1326    6.2662 H       1  UNL1        0.0000
     37 C          10.9372    4.6378    5.1653 C.ar    1  UNL1        0.0000
     38 H          10.8699    5.0164    4.1571 H       1  UNL1        0.0000
     39 C           7.9883   10.2656    8.3064 C.3     1  UNL1        0.0000
     40 H           6.9539   10.2446    7.9491 H       1  UNL1        0.0000
     41 C           9.0574    7.7360    3.7744 C.ar    1  UNL1        0.0000
     42 H           9.7632    7.1799    3.1765 H       1  UNL1        0.0000
     43 C           7.9114    8.2538    3.1921 C.ar    1  UNL1        0.0000
     44 H           7.7160    8.0923    2.1430 H       1  UNL1        0.0000
     45 C           6.1207    7.8344    8.2983 C.3     1  UNL1        0.0000
     46 H           5.9208    8.6307    9.0088 H       1  UNL1        0.0000
     47 H           5.5238    6.9734    8.5969 H       1  UNL1        0.0000
     48 H           5.7828    8.1373    7.3103 H       1  UNL1        0.0000
     49 C          14.3492    9.5298    5.3917 C.ar    1  UNL1        0.0000
     50 H          14.8284   10.3941    5.8272 H       1  UNL1        0.0000
     51 C          13.4263    4.8980    9.6284 C.3     1  UNL1        0.0000
     52 H          12.9972    4.3808   10.4829 H       1  UNL1        0.0000
     53 H          14.4826    5.0565    9.8424 H       1  UNL1        0.0000
     54 H          13.3548    4.2555    8.7534 H       1  UNL1        0.0000
     55 C           7.7130    6.1630    7.4019 C.3     1  UNL1        0.0000
     56 H           8.7408    5.8133    7.3604 H       1  UNL1        0.0000
     57 H           7.3773    6.3628    6.3866 H       1  UNL1        0.0000
     58 H           7.0935    5.3650    7.8064 H       1  UNL1        0.0000
     59 C          10.0569    6.4342   11.4734 C.3     1  UNL1        0.0000
     60 H          11.0179    6.8553   11.7606 H       1  UNL1        0.0000
     61 H           9.6242    5.9509   12.3474 H       1  UNL1        0.0000
     62 H           9.4005    7.2484   11.1681 H       1  UNL1        0.0000
     63 C          10.6338   10.8387    4.5727 C.3     1  UNL1        0.0000
     64 H           9.7471   10.3510    4.9610 H       1  UNL1        0.0000
     65 H          11.2132   10.1072    4.0122 H       1  UNL1        0.0000
     66 H          10.3173   11.6188    3.8829 H       1  UNL1        0.0000
     67 C           8.9108    4.6612   10.1142 C.3     1  UNL1        0.0000
     68 H           8.9245    4.1009    9.1830 H       1  UNL1        0.0000
     69 H           8.0550    5.3281   10.1060 H       1  UNL1        0.0000
     70 H           8.7672    3.9553   10.9310 H       1  UNL1        0.0000
     71 C          13.1763   11.1069    7.9626 C.3     1  UNL1        0.0000
     72 H          13.8277   11.6530    7.2743 H       1  UNL1        0.0000
     73 C          12.6023   12.2568    5.0807 C.3     1  UNL1        0.0000
     74 H          13.1426   12.8548    5.8091 H       1  UNL1        0.0000
     75 H          12.1709   12.9484    4.3587 H       1  UNL1        0.0000
     76 H          13.2996   11.6175    4.5451 H       1  UNL1        0.0000
     77 C          15.0382    8.7878    4.4460 C.ar    1  UNL1        0.0000
     78 H          16.0310    9.0913    4.1490 H       1  UNL1        0.0000
     79 C           7.9981   10.3084    9.8314 C.3     1  UNL1        0.0000
     80 H           7.6693    9.3689   10.2693 H       1  UNL1        0.0000
     81 H           7.3392   11.0994   10.1847 H       1  UNL1        0.0000
     82 H           9.0012   10.5192   10.1877 H       1  UNL1        0.0000
     83 C          14.0673   10.2488    8.8533 C.3     1  UNL1        0.0000
     84 H          14.7011    9.5951    8.2575 H       1  UNL1        0.0000
     85 H          13.4755    9.6456    9.5397 H       1  UNL1        0.0000
     86 H          14.7163   10.8929    9.4452 H       1  UNL1        0.0000
     87 C           8.6854   11.4914    7.7420 C.3     1  UNL1        0.0000
     88 H           8.5806   11.5352    6.6602 H       1  UNL1        0.0000
     89 H           9.7432   11.4461    8.0003 H       1  UNL1        0.0000
     90 H           8.2616   12.3999    8.1664 H       1  UNL1        0.0000
     91 C          12.3925   12.1177    8.7966 C.3     1  UNL1        0.0000
     92 H          11.8859   12.8465    8.1680 H       1  UNL1        0.0000
     93 H          13.0693   12.6599    9.4549 H       1  UNL1        0.0000
     94 H          11.6504   11.6123    9.4113 H       1  UNL1        0.0000
@<TRIPOS>BOND
     1    44    43    1
     2    30    29    1
     3    42    41    1
     4    43    41   ar
     5    43    31   ar
     6    32    31    1
     7    41    10   ar
     8    26    25    1
     9    29    25   ar
    10    29    77   ar
    11    66    63    1
    12    31    27   ar
    13    65    63    1
    14    78    77    1
    15    38    37    1
    16    25     9   ar
    17    75    73    1
    18    77    49   ar
    19    76    73    1
    20    13    12    1
    21    63    64    1
    22    63    35    1
    23    73    35    1
    24    73    74    1
    25    10    14   ar
    26    10     4    1
    27    37    12   ar
    28    37    16   ar
    29     9    15   ar
    30     9     4    1
    31    27    28    1
    32    27    14   ar
    33    12    33   ar
    34    49    15   ar
    35    49    50    1
    36    35    36    1
    37    35     3    1
    38    15     3    1
    39    14     2    1
    40     4    16    1
    41    16    11   ar
    42    57    55    1
    43    88    87    1
    44    33    34    1
    45    33     5   ar
    46     3    71    1
    47    72    71    1
    48    48    45    1
    49    21    19    1
    50    56    55    1
    51    55    58    1
    52    55    17    1
    53    11     5   ar
    54    11     1    1
    55     2    17    1
    56     2    39    1
    57    87    89    1
    58    87    90    1
    59    87    39    1
    60     5     6    1
    61    40    39    1
    62    71    91    1
    63    71    83    1
    64    20    19    1
    65    92    91    1
    66    19    22    1
    67    19     7    1
    68    84    83    1
    69    17    45    1
    70    17    18    1
    71    45    47    1
    72    45    46    1
    73    39    79    1
    74    54    51    1
    75    91    94    1
    76    91    93    1
    77     1     7    1
    78     1    23    1
    79    83    86    1
    80    83    85    1
    81    68    67    1
    82     7    51    1
    83     7     8    1
    84    51    53    1
    85    51    52    1
    86    79    81    1
    87    79    82    1
    88    79    80    1
    89    69    67    1
    90    67    23    1
    91    67    70    1
    92    23    24    1
    93    23    59    1
    94    62    59    1
    95    59    60    1
    96    59    61    1
