@<TRIPOS>MOLECULE
1,2,3,4
 100 108 0 0 0
SMALL
GASTEIGER

@<TRIPOS>ATOM
      1 P          -0.7424    3.4731    5.6954 P.3     1  UNL1        0.0000
      2 P           0.5223    6.5743    4.5811 P.3     1  UNL1        0.0000
      3 P          -0.0521    2.6059    2.2593 P.3     1  UNL1        0.0000
      4 SI          1.9653    3.9532    4.2248 Si      1  UNL1        0.0000
      5 C           1.9992    3.3302    6.0360 C.ar    1  UNL1        0.0000
      6 C           0.7661    3.0473    6.6242 C.ar    1  UNL1        0.0000
      7 C           0.7048    2.4037    7.8580 C.ar    1  UNL1        0.0000
      8 C           1.8724    2.1332    8.5477 C.ar    1  UNL1        0.0000
      9 C           3.0994    2.4830    8.0038 C.ar    1  UNL1        0.0000
     10 C           3.1603    3.0528    6.7447 C.ar    1  UNL1        0.0000
     11 C          -1.7931    4.4151    6.8532 C.ar    1  UNL1        0.0000
     12 C          -2.9774    4.9314    6.3293 C.ar    1  UNL1        0.0000
     13 C          -3.8914    5.5696    7.1453 C.ar    1  UNL1        0.0000
     14 C          -3.6304    5.7011    8.4996 C.ar    1  UNL1        0.0000
     15 C          -2.4419    5.2195    9.0203 C.ar    1  UNL1        0.0000
     16 C          -1.5210    4.5851    8.2044 C.ar    1  UNL1        0.0000
     17 C          -1.5677    1.8448    5.7652 C.ar    1  UNL1        0.0000
     18 C          -2.9195    1.6885    6.0473 C.ar    1  UNL1        0.0000
     19 C          -3.4626    0.4195    6.1449 C.ar    1  UNL1        0.0000
     20 C          -2.6657   -0.6974    5.9648 C.ar    1  UNL1        0.0000
     21 C          -1.3221   -0.5456    5.6623 C.ar    1  UNL1        0.0000
     22 C          -0.7765    0.7178    5.5508 C.ar    1  UNL1        0.0000
     23 C           3.0453    5.5209    4.1669 C.ar    1  UNL1        0.0000
     24 C           2.3303    6.7082    4.3428 C.ar    1  UNL1        0.0000
     25 C           2.9855    7.9317    4.3559 C.ar    1  UNL1        0.0000
     26 C           4.3596    7.9738    4.1862 C.ar    1  UNL1        0.0000
     27 C           5.0752    6.8021    4.0058 C.ar    1  UNL1        0.0000
     28 C           4.4177    5.5826    3.9993 C.ar    1  UNL1        0.0000
     29 C           0.3525    6.8546    6.3677 C.ar    1  UNL1        0.0000
     30 C          -0.8013    7.4599    6.8617 C.ar    1  UNL1        0.0000
     31 C          -0.9115    7.7344    8.2110 C.ar    1  UNL1        0.0000
     32 C           0.1095    7.3763    9.0783 C.ar    1  UNL1        0.0000
     33 C           1.2366    6.7318    8.5960 C.ar    1  UNL1        0.0000
     34 C           1.3642    6.4738    7.2428 C.ar    1  UNL1        0.0000
     35 C          -0.1078    8.1314    3.8724 C.ar    1  UNL1        0.0000
     36 C          -0.6306    8.1444    2.5835 C.ar    1  UNL1        0.0000
     37 C          -1.0550    9.3306    2.0113 C.ar    1  UNL1        0.0000
     38 C          -0.9564   10.5173    2.7175 C.ar    1  UNL1        0.0000
     39 C          -0.4284   10.5145    3.9987 C.ar    1  UNL1        0.0000
     40 C          -0.0048    9.3321    4.5766 C.ar    1  UNL1        0.0000
     41 C           2.5749    2.4987    3.1486 C.ar    1  UNL1        0.0000
     42 C           1.6521    1.9695    2.2464 C.ar    1  UNL1        0.0000
     43 C           2.0327    1.0001    1.3226 C.ar    1  UNL1        0.0000
     44 C           3.3264    0.5110    1.3397 C.ar    1  UNL1        0.0000
     45 C           4.2339    0.9866    2.2740 C.ar    1  UNL1        0.0000
     46 C           3.8606    1.9818    3.1610 C.ar    1  UNL1        0.0000
     47 C          -1.1508    1.1761    2.5027 C.ar    1  UNL1        0.0000
     48 C          -2.5074    1.4594    2.6520 C.ar    1  UNL1        0.0000
     49 C          -3.4308    0.4355    2.7325 C.ar    1  UNL1        0.0000
     50 C          -3.0055   -0.8818    2.6679 C.ar    1  UNL1        0.0000
     51 C          -1.6564   -1.1680    2.5480 C.ar    1  UNL1        0.0000
     52 C          -0.7260   -0.1460    2.4726 C.ar    1  UNL1        0.0000
     53 C          -0.2986    2.9585    0.4854 C.ar    1  UNL1        0.0000
     54 C           0.6917    3.7092   -0.1471 C.ar    1  UNL1        0.0000
     55 C           0.5773    4.0204   -1.4873 C.ar    1  UNL1        0.0000
     56 C          -0.5284    3.5921   -2.2070 C.ar    1  UNL1        0.0000
     57 C          -1.5159    2.8519   -1.5807 C.ar    1  UNL1        0.0000
     58 C          -1.4063    2.5328   -0.2372 C.ar    1  UNL1        0.0000
     59 H          -0.2482    2.0917    8.2637 H       1  UNL1        0.0000
     60 H           1.8261    1.6445    9.5093 H       1  UNL1        0.0000
     61 H           4.0076    2.2838    8.5523 H       1  UNL1        0.0000
     62 H           4.1177    3.2885    6.3042 H       1  UNL1        0.0000
     63 H          -3.1806    4.8285    5.2707 H       1  UNL1        0.0000
     64 H          -4.8079    5.9586    6.7273 H       1  UNL1        0.0000
     65 H          -4.3477    6.1861    9.1438 H       1  UNL1        0.0000
     66 H          -2.2262    5.3355   10.0717 H       1  UNL1        0.0000
     67 H          -0.5868    4.2467    8.6247 H       1  UNL1        0.0000
     68 H          -3.5485    2.5519    6.2088 H       1  UNL1        0.0000
     69 H          -4.5112    0.3053    6.3743 H       1  UNL1        0.0000
     70 H          -3.0894   -1.6852    6.0599 H       1  UNL1        0.0000
     71 H          -0.6974   -1.4140    5.5181 H       1  UNL1        0.0000
     72 H           0.2734    0.8374    5.3117 H       1  UNL1        0.0000
     73 H           2.4330    8.8513    4.4811 H       1  UNL1        0.0000
     74 H           4.8694    8.9252    4.1874 H       1  UNL1        0.0000
     75 H           6.1449    6.8397    3.8650 H       1  UNL1        0.0000
     76 H           4.9770    4.6723    3.8474 H       1  UNL1        0.0000
     77 H          -1.5983    7.7302    6.1818 H       1  UNL1        0.0000
     78 H          -1.7922    8.2326    8.5866 H       1  UNL1        0.0000
     79 H           0.0250    7.6000   10.1307 H       1  UNL1        0.0000
     80 H           2.0272    6.4424    9.2719 H       1  UNL1        0.0000
     81 H           2.2554    5.9950    6.8614 H       1  UNL1        0.0000
     82 H          -0.7034    7.2224    2.0240 H       1  UNL1        0.0000
     83 H          -1.4635    9.3266    1.0122 H       1  UNL1        0.0000
     84 H          -1.2897   11.4423    2.2728 H       1  UNL1        0.0000
     85 H          -0.3457   11.4375    4.5526 H       1  UNL1        0.0000
     86 H           0.3946    9.3432    5.5814 H       1  UNL1        0.0000
     87 H           1.3267    0.6500    0.5810 H       1  UNL1        0.0000
     88 H           3.6277   -0.2392    0.6244 H       1  UNL1        0.0000
     89 H           5.2390    0.5935    2.2954 H       1  UNL1        0.0000
     90 H           4.5787    2.3606    3.8716 H       1  UNL1        0.0000
     91 H          -2.8316    2.4919    2.6999 H       1  UNL1        0.0000
     92 H          -4.4807    0.6627    2.8395 H       1  UNL1        0.0000
     93 H          -3.7259   -1.6835    2.7185 H       1  UNL1        0.0000
     94 H          -1.3239   -2.1944    2.5117 H       1  UNL1        0.0000
     95 H           0.3250   -0.3815    2.3990 H       1  UNL1        0.0000
     96 H           1.5504    4.0430    0.4214 H       1  UNL1        0.0000
     97 H           1.3495    4.5973   -1.9731 H       1  UNL1        0.0000
     98 H          -0.6185    3.8356   -3.2545 H       1  UNL1        0.0000
     99 H          -2.3775    2.5170   -2.1385 H       1  UNL1        0.0000
    100 H          -2.1806    1.9482    0.2384 H       1  UNL1        0.0000
@<TRIPOS>BOND
     1    98    56    1
     2    56    57   ar
     3    56    55   ar
     4    99    57    1
     5    97    55    1
     6    57    58   ar
     7    55    54   ar
     8    58   100    1
     9    58    53   ar
    10    54    96    1
    11    54    53   ar
    12    53     3    1
    13    87    43    1
    14    88    44    1
    15    83    37    1
    16    43    44   ar
    17    43    42   ar
    18    44    45   ar
    19    37    36   ar
    20    37    38   ar
    21    82    36    1
    22    42     3    1
    23    42    41   ar
    24     3    47    1
    25    84    38    1
    26    45    89    1
    27    45    46   ar
    28    95    52    1
    29    52    47   ar
    30    52    51   ar
    31    47    48   ar
    32    94    51    1
    33    51    50   ar
    34    36    35   ar
    35    48    91    1
    36    48    49   ar
    37    50    93    1
    38    50    49   ar
    39    38    39   ar
    40    49    92    1
    41    41    46   ar
    42    41     4    1
    43    46    90    1
    44    76    28    1
    45    75    27    1
    46    35    40   ar
    47    35     2    1
    48    39    85    1
    49    39    40   ar
    50    28    27   ar
    51    28    23   ar
    52    27    26   ar
    53    23     4    1
    54    23    24   ar
    55    26    74    1
    56    26    25   ar
    57     4     5    1
    58    24    25   ar
    59    24     2    1
    60    25    73    1
    61    40    86    1
    62     2    29    1
    63    63    12    1
    64    72    22    1
    65    71    21    1
    66    22    21   ar
    67    22    17   ar
    68    21    20   ar
    69     1    17    1
    70     1     6    1
    71     1    11    1
    72    17    18   ar
    73    20    70    1
    74    20    19   ar
    75     5     6   ar
    76     5    10   ar
    77    18    19   ar
    78    18    68    1
    79    19    69    1
    80    77    30    1
    81    62    10    1
    82    12    11   ar
    83    12    13   ar
    84    29    30   ar
    85    29    34   ar
    86     6     7   ar
    87    64    13    1
    88    10     9   ar
    89    11    16   ar
    90    81    34    1
    91    30    31   ar
    92    13    14   ar
    93    34    33   ar
    94     7    59    1
    95     7     8   ar
    96     9     8   ar
    97     9    61    1
    98    16    67    1
    99    16    15   ar
   100    31    78    1
   101    31    32   ar
   102    14    15   ar
   103    14    65    1
   104     8    60    1
   105    33    32   ar
   106    33    80    1
   107    15    66    1
   108    32    79    1
