@<TRIPOS>MOLECULE
1,2,3,4
 94 96 0 0 0
SMALL
GASTEIGER

@<TRIPOS>ATOM
      1 P           3.1888   12.1828   18.6226 P.3     1  UNL1        0.0000
      2 P           1.3278   15.2427   19.9778 P.3     1  UNL1        0.0000
      3 P           4.7007   15.7270   17.8294 P.3     1  UNL1        0.0000
      4 SI          4.1172   14.3054   20.3396 Si      1  UNL1        0.0000
      5 C           3.6388   11.5701   20.2908 C.ar    1  UNL1        0.0000
      6 C           4.1556   12.5616   21.1284 C.ar    1  UNL1        0.0000
      7 C           4.5527   12.2314   22.4110 C.ar    1  UNL1        0.0000
      8 H           4.9250   13.0022   23.0695 H       1  UNL1        0.0000
      9 C           4.4546   10.9267   22.8656 C.ar    1  UNL1        0.0000
     10 H           4.7672   10.6740   23.8690 H       1  UNL1        0.0000
     11 C           3.9382    9.9470   22.0355 C.ar    1  UNL1        0.0000
     12 H           3.8476    8.9297   22.3902 H       1  UNL1        0.0000
     13 C           3.5253   10.2644   20.7516 C.ar    1  UNL1        0.0000
     14 H           3.1018    9.4845   20.1356 H       1  UNL1        0.0000
     15 C           2.1770   15.9807   21.4463 C.ar    1  UNL1        0.0000
     16 C           3.4551   15.4733   21.6912 C.ar    1  UNL1        0.0000
     17 C           4.1756   15.9088   22.7880 C.ar    1  UNL1        0.0000
     18 H           5.1718   15.5269   22.9522 H       1  UNL1        0.0000
     19 C           3.6440   16.8445   23.6577 C.ar    1  UNL1        0.0000
     20 H           4.2111   17.1828   24.5132 H       1  UNL1        0.0000
     21 C           2.3838   17.3592   23.4118 C.ar    1  UNL1        0.0000
     22 H           1.9632   18.1032   24.0740 H       1  UNL1        0.0000
     23 C           1.6535   16.9326   22.3146 C.ar    1  UNL1        0.0000
     24 H           0.6826   17.3778   22.1556 H       1  UNL1        0.0000
     25 C           6.2111   15.3544   18.7977 C.ar    1  UNL1        0.0000
     26 C           5.9454   14.7844   20.0464 C.ar    1  UNL1        0.0000
     27 C           6.9938   14.5075   20.9036 C.ar    1  UNL1        0.0000
     28 H           6.7916   14.0432   21.8569 H       1  UNL1        0.0000
     29 C           8.2996   14.7941   20.5423 C.ar    1  UNL1        0.0000
     30 H           9.1136   14.5763   21.2192 H       1  UNL1        0.0000
     31 C           8.5615   15.3399   19.2983 C.ar    1  UNL1        0.0000
     32 H           9.5799   15.5461   18.9997 H       1  UNL1        0.0000
     33 C           7.5229   15.6180   18.4245 C.ar    1  UNL1        0.0000
     34 H           7.7663   16.0172   17.4505 H       1  UNL1        0.0000
     35 C           4.6630   11.4593   17.6696 C.3     1  UNL1        0.0000
     36 H           4.5421   11.8407   16.6476 H       1  UNL1        0.0000
     37 C           5.9456   12.0369   18.2513 C.3     1  UNL1        0.0000
     38 H           6.8064   11.7462   17.6492 H       1  UNL1        0.0000
     39 H           6.1046   11.6783   19.2671 H       1  UNL1        0.0000
     40 H           5.8924   13.1205   18.2801 H       1  UNL1        0.0000
     41 C           4.7997    9.9392   17.6075 C.3     1  UNL1        0.0000
     42 H           4.8237    9.5105   18.6066 H       1  UNL1        0.0000
     43 H           5.7464    9.6986   17.1231 H       1  UNL1        0.0000
     44 H           4.0114    9.4663   17.0282 H       1  UNL1        0.0000
     45 C           1.9091   10.9164   18.0767 C.3     1  UNL1        0.0000
     46 H           2.3586    9.9260   18.1991 H       1  UNL1        0.0000
     47 C           1.5894   11.1319   16.6009 C.3     1  UNL1        0.0000
     48 H           1.2281   12.1427   16.4355 H       1  UNL1        0.0000
     49 H           0.8164   10.4362   16.2748 H       1  UNL1        0.0000
     50 H           2.4692   10.9755   15.9797 H       1  UNL1        0.0000
     51 C           0.6513   10.9598   18.9333 C.3     1  UNL1        0.0000
     52 H          -0.1047   10.2939   18.5176 H       1  UNL1        0.0000
     53 H           0.2413   11.9632   18.9646 H       1  UNL1        0.0000
     54 H           0.8640   10.6433   19.9522 H       1  UNL1        0.0000
     55 C           0.0924   14.1907   20.9409 C.3     1  UNL1        0.0000
     56 H          -0.5273   13.7079   20.1738 H       1  UNL1        0.0000
     57 C           0.8829   13.1148   21.6739 C.3     1  UNL1        0.0000
     58 H           0.2160   12.3673   22.1015 H       1  UNL1        0.0000
     59 H           1.4695   13.5535   22.4797 H       1  UNL1        0.0000
     60 H           1.5703   12.6224   20.9895 H       1  UNL1        0.0000
     61 C          -0.8308   14.9016   21.9254 C.3     1  UNL1        0.0000
     62 H          -0.2589   15.3404   22.7392 H       1  UNL1        0.0000
     63 H          -1.5122   14.1677   22.3564 H       1  UNL1        0.0000
     64 H          -1.4306   15.6747   21.4536 H       1  UNL1        0.0000
     65 C           0.2251   16.6943   19.4879 C.3     1  UNL1        0.0000
     66 H          -0.0833   17.1685   20.4245 H       1  UNL1        0.0000
     67 C          -1.0405   16.3499   18.7080 C.3     1  UNL1        0.0000
     68 H          -0.8074   16.1178   17.6739 H       1  UNL1        0.0000
     69 H          -1.7100   17.2110   18.7158 H       1  UNL1        0.0000
     70 H          -1.5742   15.5057   19.1365 H       1  UNL1        0.0000
     71 C           1.0638   17.6881   18.6938 C.3     1  UNL1        0.0000
     72 H           0.4387   18.4902   18.3023 H       1  UNL1        0.0000
     73 H           1.5371   17.1755   17.8544 H       1  UNL1        0.0000
     74 H           1.8366   18.1283   19.3194 H       1  UNL1        0.0000
     75 C           4.6714   17.5919   18.1544 C.3     1  UNL1        0.0000
     76 H           3.7502   17.9519   17.6772 H       1  UNL1        0.0000
     77 C           4.5501   17.8201   19.6554 C.3     1  UNL1        0.0000
     78 H           4.3713   18.8738   19.8683 H       1  UNL1        0.0000
     79 H           5.4634   17.5202   20.1662 H       1  UNL1        0.0000
     80 H           3.7312   17.2373   20.0674 H       1  UNL1        0.0000
     81 C           5.8495   18.4032   17.6214 C.3     1  UNL1        0.0000
     82 H           6.7855   18.0458   18.0442 H       1  UNL1        0.0000
     83 H           5.7228   19.4413   17.9288 H       1  UNL1        0.0000
     84 H           5.9158   18.3879   16.5372 H       1  UNL1        0.0000
     85 C           5.3514   15.7652   16.0540 C.3     1  UNL1        0.0000
     86 H           6.3232   16.2661   16.0957 H       1  UNL1        0.0000
     87 C           4.4650   16.5317   15.0663 C.3     1  UNL1        0.0000
     88 H           3.7121   15.8772   14.6305 H       1  UNL1        0.0000
     89 H           5.0715   16.9093   14.2426 H       1  UNL1        0.0000
     90 H           3.9612   17.3793   15.5275 H       1  UNL1        0.0000
     91 C           5.5615   14.3381   15.5630 C.3     1  UNL1        0.0000
     92 H           5.8686   14.3358   14.5173 H       1  UNL1        0.0000
     93 H           4.6326   13.7734   15.6528 H       1  UNL1        0.0000
     94 H           6.3294   13.8366   16.1470 H       1  UNL1        0.0000
@<TRIPOS>BOND
     1    89    87    1
     2    92    91    1
     3    88    87    1
     4    87    90    1
     5    87    85    1
     6    91    93    1
     7    91    85    1
     8    91    94    1
     9    50    47    1
    10    85    86    1
    11    85     3    1
    12    49    47    1
    13    48    47    1
    14    84    81    1
    15    47    45    1
    16    36    35    1
    17    44    41    1
    18    43    41    1
    19    34    33    1
    20    41    35    1
    21    41    42    1
    22    81    83    1
    23    81    82    1
    24    81    75    1
    25    38    37    1
    26    35    37    1
    27    35     1    1
    28    68    67    1
    29    76    75    1
    30     3    75    1
    31     3    25    1
    32    73    71    1
    33    45    46    1
    34    45     1    1
    35    45    51    1
    36    75    77    1
    37    37    40    1
    38    37    39    1
    39    72    71    1
    40    33    25   ar
    41    33    31   ar
    42    52    51    1
    43     1     5    1
    44    71    74    1
    45    71    65    1
    46    67    69    1
    47    67    70    1
    48    67    65    1
    49    25    26   ar
    50    51    53    1
    51    51    54    1
    52    32    31    1
    53    31    29   ar
    54    65     2    1
    55    65    66    1
    56    77    78    1
    57    77    80    1
    58    77    79    1
    59     2    55    1
    60     2    15    1
    61    26     4    1
    62    26    27   ar
    63    14    13    1
    64    56    55    1
    65     5    13   ar
    66     5     6   ar
    67     4     6    1
    68     4    16    1
    69    29    27   ar
    70    29    30    1
    71    13    11   ar
    72    27    28    1
    73    55    57    1
    74    55    61    1
    75    60    57    1
    76     6     7   ar
    77    15    16   ar
    78    15    23   ar
    79    64    61    1
    80    57    58    1
    81    57    59    1
    82    16    17   ar
    83    61    63    1
    84    61    62    1
    85    11    12    1
    86    11     9   ar
    87    24    23    1
    88    23    21   ar
    89     7     9   ar
    90     7     8    1
    91    17    18    1
    92    17    19   ar
    93     9    10    1
    94    21    19   ar
    95    21    22    1
    96    19    20    1
