@<TRIPOS>MOLECULE
1,2,3,4
 94 96 0 0 0
SMALL
GASTEIGER

@<TRIPOS>ATOM
      1 P           6.1597    2.6315    5.9135 P.3     1  UNL1        0.0000
      2 P           9.0706    1.6814    9.0874 P.3     1  UNL1        0.0000
      3 P           8.4981    5.3560    7.6349 P.3     1  UNL1        0.0000
      4 SI          6.5921    3.4729    8.8341 Si      1  UNL1        0.0000
      5 C           4.8787    2.0552    7.0816 C.ar    1  UNL1        0.0000
      6 C           4.9960    2.5035    8.4009 C.ar    1  UNL1        0.0000
      7 C           2.8527    0.8957    7.6503 C.ar    1  UNL1        0.0000
      8 H           2.0287    0.2610    7.3609 H       1  UNL1        0.0000
      9 C           2.9519    1.3562    8.9521 C.ar    1  UNL1        0.0000
     10 H           2.2014    1.0850    9.6791 H       1  UNL1        0.0000
     11 C           4.0268    2.1465    9.3226 C.ar    1  UNL1        0.0000
     12 H           4.1230    2.4760   10.3455 H       1  UNL1        0.0000
     13 C           7.1240    2.9091   10.5885 C.ar    1  UNL1        0.0000
     14 C           6.9497    2.8597   12.9901 C.ar    1  UNL1        0.0000
     15 H           6.4320    3.1448   13.8934 H       1  UNL1        0.0000
     16 C           6.9733    6.1760    8.2029 C.ar    1  UNL1        0.0000
     17 C           6.4713    3.2667   11.7558 C.ar    1  UNL1        0.0000
     18 H           5.5899    3.8870   11.7010 H       1  UNL1        0.0000
     19 C           6.6703    7.5199    8.0299 C.ar    1  UNL1        0.0000
     20 H           7.3145    8.1661    7.4513 H       1  UNL1        0.0000
     21 C           6.1027    5.3320    8.9038 C.ar    1  UNL1        0.0000
     22 C           3.8130    1.2414    6.7142 C.ar    1  UNL1        0.0000
     23 H           3.7255    0.8521    5.7110 H       1  UNL1        0.0000
     24 C           8.2866    2.1359   10.6707 C.ar    1  UNL1        0.0000
     25 C           9.0920    6.2558    6.1111 C.3     1  UNL1        0.0000
     26 H           9.1107    7.3304    6.3169 H       1  UNL1        0.0000
     27 C           4.9457    5.8637    9.4465 C.ar    1  UNL1        0.0000
     28 H           4.2581    5.2189    9.9729 H       1  UNL1        0.0000
     29 C           6.8466   -0.0039    5.3285 C.3     1  UNL1        0.0000
     30 H           7.7343    0.2306    5.9173 H       1  UNL1        0.0000
     31 H           7.1034   -0.7533    4.5815 H       1  UNL1        0.0000
     32 H           6.1052   -0.4326    5.9997 H       1  UNL1        0.0000
     33 C           3.9947    3.3704    4.1450 C.3     1  UNL1        0.0000
     34 H           4.2791    2.6602    3.3735 H       1  UNL1        0.0000
     35 H           3.5051    4.2080    3.6504 H       1  UNL1        0.0000
     36 H           3.2673    2.9108    4.8094 H       1  UNL1        0.0000
     37 C           6.2987    1.2524    4.6602 C.3     1  UNL1        0.0000
     38 H           5.2954    1.0301    4.2858 H       1  UNL1        0.0000
     39 C           5.1883    3.9079    4.9290 C.3     1  UNL1        0.0000
     40 H           5.9079    4.3393    4.2226 H       1  UNL1        0.0000
     41 C           4.7129    5.0003    5.8790 C.3     1  UNL1        0.0000
     42 H           3.9839    4.6051    6.5846 H       1  UNL1        0.0000
     43 H           4.2431    5.8080    5.3210 H       1  UNL1        0.0000
     44 H           5.5438    5.4105    6.4462 H       1  UNL1        0.0000
     45 C           8.1463    5.9859    4.9492 C.3     1  UNL1        0.0000
     46 H           8.0634    4.9080    4.7878 H       1  UNL1        0.0000
     47 H           8.5253    6.4430    4.0367 H       1  UNL1        0.0000
     48 H           7.1571    6.3914    5.1499 H       1  UNL1        0.0000
     49 C          10.4965    5.7566    5.7822 C.3     1  UNL1        0.0000
     50 H          11.2274    6.0886    6.5160 H       1  UNL1        0.0000
     51 H          10.8092    6.1217    4.8056 H       1  UNL1        0.0000
     52 H          10.4992    4.6638    5.7588 H       1  UNL1        0.0000
     53 C           9.6971    6.0061    8.9266 C.3     1  UNL1        0.0000
     54 H          10.6516    5.5112    8.7081 H       1  UNL1        0.0000
     55 C           9.9115    7.5167    8.9080 C.3     1  UNL1        0.0000
     56 H          10.3599    7.8663    7.9820 H       1  UNL1        0.0000
     57 H          10.5888    7.7801    9.7190 H       1  UNL1        0.0000
     58 H           8.9753    8.0434    9.0760 H       1  UNL1        0.0000
     59 C           9.2235    5.5769   10.3102 C.3     1  UNL1        0.0000
     60 H           8.2938    6.0796   10.5708 H       1  UNL1        0.0000
     61 H           9.9702    5.8342   11.0589 H       1  UNL1        0.0000
     62 H           9.0525    4.5037   10.3469 H       1  UNL1        0.0000
     63 C           8.5574   -0.1206    8.9223 C.3     1  UNL1        0.0000
     64 H           8.9139   -0.4357    7.9319 H       1  UNL1        0.0000
     65 C           4.6529    7.2103    9.2975 C.ar    1  UNL1        0.0000
     66 H           3.7486    7.6169    9.7245 H       1  UNL1        0.0000
     67 C           5.5061    8.0322    8.5802 C.ar    1  UNL1        0.0000
     68 H           5.2641    9.0755    8.4440 H       1  UNL1        0.0000
     69 C           7.0343   -0.1936    8.9382 C.3     1  UNL1        0.0000
     70 H           6.6485    0.0824    9.9177 H       1  UNL1        0.0000
     71 H           6.7029   -1.2055    8.7138 H       1  UNL1        0.0000
     72 H           6.6043    0.4828    8.2021 H       1  UNL1        0.0000
     73 C           8.1043    2.0997   13.0654 C.ar    1  UNL1        0.0000
     74 H           8.4887    1.7910   14.0258 H       1  UNL1        0.0000
     75 C          11.4619    2.8585    9.9370 C.3     1  UNL1        0.0000
     76 H          11.3435    3.5945    9.1438 H       1  UNL1        0.0000
     77 H          12.5240    2.7561   10.1526 H       1  UNL1        0.0000
     78 H          10.9645    3.2224   10.8329 H       1  UNL1        0.0000
     79 C          10.8890    1.5215    9.4891 C.3     1  UNL1        0.0000
     80 H          10.9800    0.8008   10.3075 H       1  UNL1        0.0000
     81 C           9.1273   -1.0666    9.9744 C.3     1  UNL1        0.0000
     82 H          10.2083   -1.1602    9.9111 H       1  UNL1        0.0000
     83 H           8.7038   -2.0574    9.8171 H       1  UNL1        0.0000
     84 H           8.8497   -0.7450   10.9752 H       1  UNL1        0.0000
     85 C          11.6512    1.0044    8.2737 C.3     1  UNL1        0.0000
     86 H          11.2501    0.0566    7.9188 H       1  UNL1        0.0000
     87 H          12.6993    0.8548    8.5266 H       1  UNL1        0.0000
     88 H          11.6009    1.7365    7.4688 H       1  UNL1        0.0000
     89 C           7.1658    1.7194    3.4924 C.3     1  UNL1        0.0000
     90 H           6.6441    2.4574    2.8872 H       1  UNL1        0.0000
     91 H           7.4211    0.8793    2.8486 H       1  UNL1        0.0000
     92 H           8.0893    2.1731    3.8504 H       1  UNL1        0.0000
     93 C           8.7780    1.7407   11.9098 C.ar    1  UNL1        0.0000
     94 H           9.6905    1.1696   11.9932 H       1  UNL1        0.0000
@<TRIPOS>BOND
     1    91    89    1
     2    90    89    1
     3    34    33    1
     4    89    92    1
     5    89    37    1
     6    35    33    1
     7    47    45    1
     8    33    36    1
     9    33    39    1
    10    40    39    1
    11    38    37    1
    12    31    29    1
    13    37    29    1
    14    37     1    1
    15    46    45    1
    16    51    49    1
    17    39    41    1
    18    39     1    1
    19    45    48    1
    20    45    25    1
    21    43    41    1
    22    29    30    1
    23    29    32    1
    24    23    22    1
    25    52    49    1
    26    49    25    1
    27    49    50    1
    28    41    44    1
    29    41    42    1
    30     1     5    1
    31    25    26    1
    32    25     3    1
    33    22     5   ar
    34    22     7   ar
    35     5     6   ar
    36     8     7    1
    37    20    19    1
    38    88    85    1
    39     3    16    1
    40     3    53    1
    41     7     9   ar
    42    86    85    1
    43    64    63    1
    44    56    55    1
    45    19    16   ar
    46    19    67   ar
    47    72    69    1
    48    16    21   ar
    49    85    87    1
    50    85    79    1
    51     6     4    1
    52     6    11   ar
    53    68    67    1
    54    67    65   ar
    55    54    53    1
    56    71    69    1
    57     4    21    1
    58     4    13    1
    59    21    27   ar
    60    55    53    1
    61    55    58    1
    62    55    57    1
    63    63    69    1
    64    63     2    1
    65    63    81    1
    66    53    59    1
    67    69    70    1
    68     9    11   ar
    69     9    10    1
    70     2    79    1
    71     2    24    1
    72    76    75    1
    73    65    27   ar
    74    65    66    1
    75    11    12    1
    76    27    28    1
    77    79    75    1
    78    79    80    1
    79    83    81    1
    80    82    81    1
    81    75    77    1
    82    75    78    1
    83    81    84    1
    84    59    62    1
    85    59    60    1
    86    59    61    1
    87    13    24   ar
    88    13    17   ar
    89    24    93   ar
    90    18    17    1
    91    17    14   ar
    92    93    94    1
    93    93    73   ar
    94    14    73   ar
    95    14    15    1
    96    73    74    1
