@<TRIPOS>MOLECULE
1,2,3,4
 94 96 0 0 0
SMALL
GASTEIGER

@<TRIPOS>ATOM
      1 SI         10.2818   11.5628    3.9267 Si      1  UNL1        0.0000
      2 P          12.2829   12.8112    2.2056 P.3     1  UNL1        0.0000
      3 P          10.4841    9.3605    1.9954 P.3     1  UNL1        0.0000
      4 P           8.4429   12.7195    1.9695 P.3     1  UNL1        0.0000
      5 C          11.9930   11.8476    4.7207 C.ar    1  UNL1        0.0000
      6 C          12.3567   11.5104    6.0113 C.ar    1  UNL1        0.0000
      7 H          11.6100   11.1284    6.6917 H       1  UNL1        0.0000
      8 C          13.6723   11.6343    6.4267 C.ar    1  UNL1        0.0000
      9 H          13.9517   11.3687    7.4363 H       1  UNL1        0.0000
     10 C          14.6360   12.0760    5.5365 C.ar    1  UNL1        0.0000
     11 H          15.6680   12.1497    5.8492 H       1  UNL1        0.0000
     12 C          14.2865   12.4211    4.2408 C.ar    1  UNL1        0.0000
     13 H          15.0610   12.7400    3.5584 H       1  UNL1        0.0000
     14 C          12.9629   12.3214    3.8324 C.ar    1  UNL1        0.0000
     15 C           9.6456    9.8686    4.5260 C.ar    1  UNL1        0.0000
     16 C           9.1021    9.6050    5.7695 C.ar    1  UNL1        0.0000
     17 H           9.0931   10.3807    6.5208 H       1  UNL1        0.0000
     18 C           8.5493    8.3661    6.0482 C.ar    1  UNL1        0.0000
     19 H           8.1254    8.1653    7.0217 H       1  UNL1        0.0000
     20 C           8.5188    7.3910    5.0663 C.ar    1  UNL1        0.0000
     21 H           8.0662    6.4309    5.2709 H       1  UNL1        0.0000
     22 C           9.0620    7.6393    3.8161 C.ar    1  UNL1        0.0000
     23 H           9.0037    6.8693    3.0607 H       1  UNL1        0.0000
     24 C           9.6395    8.8730    3.5450 C.ar    1  UNL1        0.0000
     25 C           9.1019   12.9073    4.5900 C.ar    1  UNL1        0.0000
     26 C           9.0533   13.3735    5.8908 C.ar    1  UNL1        0.0000
     27 H           9.6651   12.9044    6.6470 H       1  UNL1        0.0000
     28 C           8.2478   14.4502    6.2231 C.ar    1  UNL1        0.0000
     29 H           8.2142   14.8111    7.2412 H       1  UNL1        0.0000
     30 C           7.5024   15.0804    5.2416 C.ar    1  UNL1        0.0000
     31 H           6.8910   15.9358    5.4921 H       1  UNL1        0.0000
     32 C           7.5384   14.6234    3.9340 C.ar    1  UNL1        0.0000
     33 H           6.9654   15.1465    3.1821 H       1  UNL1        0.0000
     34 C           8.3275   13.5288    3.6058 C.ar    1  UNL1        0.0000
     35 C          12.3443   14.6809    2.4561 C.3     1  UNL1        0.0000
     36 H          11.9436   15.1008    1.5250 H       1  UNL1        0.0000
     37 C          11.4094   15.0569    3.5984 C.3     1  UNL1        0.0000
     38 H          11.7783   14.6636    4.5446 H       1  UNL1        0.0000
     39 H          10.4161   14.6506    3.4305 H       1  UNL1        0.0000
     40 H          11.3312   16.1400    3.6864 H       1  UNL1        0.0000
     41 C          13.7199   15.2885    2.7174 C.3     1  UNL1        0.0000
     42 H          13.6056   16.3648    2.8463 H       1  UNL1        0.0000
     43 H          14.4134   15.1278    1.8969 H       1  UNL1        0.0000
     44 H          14.1497   14.8889    3.6330 H       1  UNL1        0.0000
     45 C          13.7299   12.6099    1.0288 C.3     1  UNL1        0.0000
     46 H          14.6243   13.0112    1.5189 H       1  UNL1        0.0000
     47 C          13.4870   13.3644   -0.2758 C.3     1  UNL1        0.0000
     48 H          14.3155   13.1888   -0.9614 H       1  UNL1        0.0000
     49 H          13.4019   14.4371   -0.1163 H       1  UNL1        0.0000
     50 H          12.5761   13.0101   -0.7534 H       1  UNL1        0.0000
     51 C          13.9447   11.1275    0.7512 C.3     1  UNL1        0.0000
     52 H          13.0280   10.6903    0.3539 H       1  UNL1        0.0000
     53 H          14.2243   10.5993    1.6606 H       1  UNL1        0.0000
     54 H          14.7352   10.9888    0.0147 H       1  UNL1        0.0000
     55 C          12.0710    8.3697    2.2389 C.3     1  UNL1        0.0000
     56 H          12.6772    8.5918    1.3514 H       1  UNL1        0.0000
     57 C          12.7981    8.9016    3.4672 C.3     1  UNL1        0.0000
     58 H          12.2305    8.6915    4.3726 H       1  UNL1        0.0000
     59 H          12.9317    9.9773    3.3975 H       1  UNL1        0.0000
     60 H          13.7781    8.4352    3.5624 H       1  UNL1        0.0000
     61 C          11.9181    6.8565    2.3655 C.3     1  UNL1        0.0000
     62 H          12.9063    6.4173    2.5016 H       1  UNL1        0.0000
     63 H          11.4756    6.4029    1.4831 H       1  UNL1        0.0000
     64 H          11.3193    6.6021    3.2370 H       1  UNL1        0.0000
     65 C           9.6551    8.3032    0.6853 C.3     1  UNL1        0.0000
     66 H           9.5368    7.2918    1.0907 H       1  UNL1        0.0000
     67 C          10.4927    8.2382   -0.5896 C.3     1  UNL1        0.0000
     68 H           9.9667    7.6530   -1.3436 H       1  UNL1        0.0000
     69 H          11.4613    7.7742   -0.4173 H       1  UNL1        0.0000
     70 H          10.6517    9.2366   -0.9907 H       1  UNL1        0.0000
     71 C           8.2753    8.8754    0.3838 C.3     1  UNL1        0.0000
     72 H           8.3667    9.9180    0.0773 H       1  UNL1        0.0000
     73 H           7.6313    8.8187    1.2593 H       1  UNL1        0.0000
     74 H           7.8032    8.3224   -0.4273 H       1  UNL1        0.0000
     75 C           6.7847   11.8210    2.0078 C.3     1  UNL1        0.0000
     76 H           6.7368   11.2816    1.0529 H       1  UNL1        0.0000
     77 C           6.8009   10.8016    3.1393 C.3     1  UNL1        0.0000
     78 H           6.8381   11.2994    4.1072 H       1  UNL1        0.0000
     79 H           7.6710   10.1560    3.0606 H       1  UNL1        0.0000
     80 H           5.9048   10.1827    3.1081 H       1  UNL1        0.0000
     81 C           5.5442   12.6995    2.1437 C.3     1  UNL1        0.0000
     82 H           4.6624   12.0591    2.1542 H       1  UNL1        0.0000
     83 H           5.4326   13.4001    1.3211 H       1  UNL1        0.0000
     84 H           5.5652   13.2508    3.0811 H       1  UNL1        0.0000
     85 C           8.0309   14.0841    0.7502 C.3     1  UNL1        0.0000
     86 H           7.1988   14.6687    1.1592 H       1  UNL1        0.0000
     87 C           7.6291   13.5166   -0.6090 C.3     1  UNL1        0.0000
     88 H           7.4577   14.3333   -1.3099 H       1  UNL1        0.0000
     89 H           6.7183   12.9247   -0.5521 H       1  UNL1        0.0000
     90 H           8.4248   12.8925   -1.0095 H       1  UNL1        0.0000
     91 C           9.2465   14.9906    0.6034 C.3     1  UNL1        0.0000
     92 H          10.1076   14.3996    0.2896 H       1  UNL1        0.0000
     93 H           9.4780   15.4828    1.5458 H       1  UNL1        0.0000
     94 H           9.0640   15.7556   -0.1503 H       1  UNL1        0.0000
@<TRIPOS>BOND
     1    68    67    1
     2    88    87    1
     3    90    87    1
     4    70    67    1
     5    48    47    1
     6    50    47    1
     7    87    89    1
     8    87    85    1
     9    67    69    1
    10    67    65    1
    11    74    71    1
    12    47    49    1
    13    47    45    1
    14    94    91    1
    15    54    51    1
    16    72    71    1
    17    92    91    1
    18    52    51    1
    19    71    65    1
    20    71    73    1
    21    91    85    1
    22    91    93    1
    23    65    66    1
    24    65     3    1
    25    85    86    1
    26    85     4    1
    27    51    45    1
    28    51    53    1
    29    45    46    1
    30    45     2    1
    31    76    75    1
    32    83    81    1
    33    56    55    1
    34    63    61    1
    35    36    35    1
    36    43    41    1
    37     4    75    1
    38     4    34    1
    39     3    55    1
    40     3    24    1
    41    75    81    1
    42    75    77    1
    43    81    82    1
    44    81    84    1
    45     2    35    1
    46     2    14    1
    47    55    61    1
    48    55    57    1
    49    61    62    1
    50    61    64    1
    51    35    41    1
    52    35    37    1
    53    41    42    1
    54    41    44    1
    55    79    77    1
    56    23    22    1
    57    80    77    1
    58    77    78    1
    59    33    32    1
    60    59    57    1
    61    39    37    1
    62    57    60    1
    63    57    58    1
    64    24    22   ar
    65    24    15   ar
    66    13    12    1
    67    37    40    1
    68    37    38    1
    69    34    32   ar
    70    34    25   ar
    71    22    20   ar
    72    14    12   ar
    73    14     5   ar
    74     1    15    1
    75     1    25    1
    76     1     5    1
    77    32    30   ar
    78    12    10   ar
    79    15    16   ar
    80    25    26   ar
    81     5     6   ar
    82    20    21    1
    83    20    18   ar
    84    30    31    1
    85    30    28   ar
    86    10    11    1
    87    10     8   ar
    88    16    18   ar
    89    16    17    1
    90    26    28   ar
    91    26    27    1
    92     6     8   ar
    93     6     7    1
    94    18    19    1
    95    28    29    1
    96     8     9    1
