@<TRIPOS>MOLECULE
1,2,3,4
 100 108 0 0 0
SMALL
GASTEIGER

@<TRIPOS>ATOM
      1 SI          9.9930    9.3013    4.9242 Si      1  UNL1        0.0000
      2 P           8.0897   11.4654    5.1109 P.3     1  UNL1        0.0000
      3 P           8.1684    7.6021    3.3742 P.3     1  UNL1        0.0000
      4 P           9.4564   10.5094    2.2672 P.3     1  UNL1        0.0000
      5 C          10.0759   10.2942    6.5469 C.ar    1  UNL1        0.0000
      6 C           9.1975   11.3748    6.5538 C.ar    1  UNL1        0.0000
      7 C           9.0934   12.2084    7.6600 C.ar    1  UNL1        0.0000
      8 H           8.3800   13.0219    7.6677 H       1  UNL1        0.0000
      9 C           9.9035   11.9790    8.7573 C.ar    1  UNL1        0.0000
     10 H           9.8319   12.6214    9.6234 H       1  UNL1        0.0000
     11 C          10.7964   10.9178    8.7526 C.ar    1  UNL1        0.0000
     12 H          11.4242   10.7420    9.6146 H       1  UNL1        0.0000
     13 C          10.8753   10.0777    7.6550 C.ar    1  UNL1        0.0000
     14 H          11.5582    9.2423    7.6672 H       1  UNL1        0.0000
     15 C          10.2841    7.4355    5.1175 C.ar    1  UNL1        0.0000
     16 C           9.4234    6.6796    4.3293 C.ar    1  UNL1        0.0000
     17 C           9.5406    5.2958    4.2661 C.ar    1  UNL1        0.0000
     18 H           8.8721    4.7222    3.6368 H       1  UNL1        0.0000
     19 C          10.5156    4.6631    5.0142 C.ar    1  UNL1        0.0000
     20 H          10.6104    3.5872    4.9778 H       1  UNL1        0.0000
     21 C          11.3750    5.4091    5.8079 C.ar    1  UNL1        0.0000
     22 H          12.1393    4.9100    6.3865 H       1  UNL1        0.0000
     23 C          11.2619    6.7877    5.8517 C.ar    1  UNL1        0.0000
     24 H          11.9453    7.3620    6.4579 H       1  UNL1        0.0000
     25 C          11.5113    9.9616    3.9568 C.ar    1  UNL1        0.0000
     26 C          11.2105   10.5776    2.7429 C.ar    1  UNL1        0.0000
     27 C          12.2048   11.2148    2.0055 C.ar    1  UNL1        0.0000
     28 H          11.9533   11.7484    1.0979 H       1  UNL1        0.0000
     29 C          13.5106   11.1936    2.4609 C.ar    1  UNL1        0.0000
     30 H          14.2870   11.6844    1.8911 H       1  UNL1        0.0000
     31 C          13.8229   10.5536    3.6513 C.ar    1  UNL1        0.0000
     32 H          14.8452   10.5411    4.0017 H       1  UNL1        0.0000
     33 C          12.8250    9.9550    4.4004 C.ar    1  UNL1        0.0000
     34 H          13.0654    9.4856    5.3424 H       1  UNL1        0.0000
     35 C           7.8735   13.2371    4.7838 C.ar    1  UNL1        0.0000
     36 C           8.7993   14.1928    5.1907 C.ar    1  UNL1        0.0000
     37 H           9.6856   13.8901    5.7320 H       1  UNL1        0.0000
     38 C           8.5812   15.5277    4.9031 C.ar    1  UNL1        0.0000
     39 H           9.2910   16.2711    5.2377 H       1  UNL1        0.0000
     40 C           7.4612   15.9124    4.1849 C.ar    1  UNL1        0.0000
     41 H           7.2944   16.9570    3.9653 H       1  UNL1        0.0000
     42 C           6.5628   14.9573    3.7357 C.ar    1  UNL1        0.0000
     43 H           5.7008   15.2547    3.1567 H       1  UNL1        0.0000
     44 C           6.7659   13.6233    4.0298 C.ar    1  UNL1        0.0000
     45 H           6.0746   12.8700    3.6766 H       1  UNL1        0.0000
     46 C           6.5491   11.0333    5.9916 C.ar    1  UNL1        0.0000
     47 C           5.6361   11.9214    6.5441 C.ar    1  UNL1        0.0000
     48 H           5.8011   12.9874    6.4693 H       1  UNL1        0.0000
     49 C           4.5033   11.4332    7.1726 C.ar    1  UNL1        0.0000
     50 H           3.7891   12.1241    7.5973 H       1  UNL1        0.0000
     51 C           4.2762   10.0695    7.2516 C.ar    1  UNL1        0.0000
     52 H           3.3843    9.6982    7.7346 H       1  UNL1        0.0000
     53 C           5.1885    9.1777    6.7081 C.ar    1  UNL1        0.0000
     54 H           5.0126    8.1133    6.7632 H       1  UNL1        0.0000
     55 C           6.3213    9.6609    6.0862 C.ar    1  UNL1        0.0000
     56 H           7.0607    8.9674    5.6655 H       1  UNL1        0.0000
     57 C           6.6085    6.8647    3.9851 C.ar    1  UNL1        0.0000
     58 C           5.4291    7.2088    3.3248 C.ar    1  UNL1        0.0000
     59 H           5.4680    7.8824    2.4794 H       1  UNL1        0.0000
     60 C           4.2140    6.7259    3.7722 C.ar    1  UNL1        0.0000
     61 H           3.3055    6.9957    3.2538 H       1  UNL1        0.0000
     62 C           4.1604    5.9073    4.8891 C.ar    1  UNL1        0.0000
     63 H           3.2105    5.5299    5.2396 H       1  UNL1        0.0000
     64 C           5.3252    5.5889    5.5676 C.ar    1  UNL1        0.0000
     65 H           5.2852    4.9661    6.4504 H       1  UNL1        0.0000
     66 C           6.5456    6.0706    5.1262 C.ar    1  UNL1        0.0000
     67 H           7.4472    5.8287    5.6722 H       1  UNL1        0.0000
     68 C           8.4229    6.7196    1.7935 C.ar    1  UNL1        0.0000
     69 C           9.7366    6.7331    1.3253 C.ar    1  UNL1        0.0000
     70 H          10.4932    7.2581    1.8984 H       1  UNL1        0.0000
     71 C          10.0680    6.0806    0.1562 C.ar    1  UNL1        0.0000
     72 H          11.0894    6.0879   -0.1952 H       1  UNL1        0.0000
     73 C           9.0885    5.4152   -0.5650 C.ar    1  UNL1        0.0000
     74 H           9.3456    4.9039   -1.4810 H       1  UNL1        0.0000
     75 C           7.7827    5.4050   -0.1085 C.ar    1  UNL1        0.0000
     76 H           7.0190    4.8833   -0.6675 H       1  UNL1        0.0000
     77 C           7.4454    6.0530    1.0678 C.ar    1  UNL1        0.0000
     78 H           6.4252    6.0248    1.4217 H       1  UNL1        0.0000
     79 C           9.4438    9.7100    0.6217 C.ar    1  UNL1        0.0000
     80 C          10.5755    9.4818   -0.1527 C.ar    1  UNL1        0.0000
     81 H          11.5565    9.7275    0.2250 H       1  UNL1        0.0000
     82 C          10.4517    8.9138   -1.4082 C.ar    1  UNL1        0.0000
     83 H          11.3361    8.7442   -2.0060 H       1  UNL1        0.0000
     84 C           9.2067    8.5603   -1.8989 C.ar    1  UNL1        0.0000
     85 H           9.1174    8.1213   -2.8819 H       1  UNL1        0.0000
     86 C           8.0791    8.7557   -1.1194 C.ar    1  UNL1        0.0000
     87 H           7.1073    8.4619   -1.4887 H       1  UNL1        0.0000
     88 C           8.1968    9.3189    0.1367 C.ar    1  UNL1        0.0000
     89 H           7.3214    9.4519    0.7588 H       1  UNL1        0.0000
     90 C           9.1506   12.2397    1.7656 C.ar    1  UNL1        0.0000
     91 C           9.8718   13.2778    2.3492 C.ar    1  UNL1        0.0000
     92 H          10.6337   13.0565    3.0854 H       1  UNL1        0.0000
     93 C           9.6252   14.5874    1.9820 C.ar    1  UNL1        0.0000
     94 H          10.2061   15.3856    2.4211 H       1  UNL1        0.0000
     95 C           8.6320   14.8768    1.0620 C.ar    1  UNL1        0.0000
     96 H           8.4391   15.9017    0.7801 H       1  UNL1        0.0000
     97 C           7.8817   13.8508    0.5119 C.ar    1  UNL1        0.0000
     98 H           7.0943   14.0745   -0.1932 H       1  UNL1        0.0000
     99 C           8.1393   12.5377    0.8570 C.ar    1  UNL1        0.0000
    100 H           7.5523   11.7398    0.4278 H       1  UNL1        0.0000
@<TRIPOS>BOND
     1    85    84    1
     2    83    82    1
     3    84    82   ar
     4    84    86   ar
     5    87    86    1
     6    74    73    1
     7    82    80   ar
     8    86    88   ar
     9    76    75    1
    10    73    75   ar
    11    73    71   ar
    12    72    71    1
    13    98    97    1
    14    80    81    1
    15    80    79   ar
    16    75    77   ar
    17    88    79   ar
    18    88    89    1
    19    71    69   ar
    20   100    99    1
    21    97    99   ar
    22    97    95   ar
    23    79     4    1
    24    96    95    1
    25    99    90   ar
    26    95    93   ar
    27    77    78    1
    28    77    68   ar
    29    28    27    1
    30    69    68   ar
    31    69    70    1
    32    90     4    1
    33    90    91   ar
    34    68     3    1
    35    30    29    1
    36    93    91   ar
    37    93    94    1
    38    27    29   ar
    39    27    26   ar
    40     4    26    1
    41    91    92    1
    42    29    31   ar
    43    59    58    1
    44    26    25   ar
    45    43    42    1
    46    61    60    1
    47    58    60   ar
    48    58    57   ar
    49     3    57    1
    50     3    16    1
    51    18    17    1
    52    31    32    1
    53    31    33   ar
    54    45    44    1
    55    42    44   ar
    56    42    40   ar
    57    60    62   ar
    58    25    33   ar
    59    25     1    1
    60    41    40    1
    61    57    66   ar
    62    44    35   ar
    63    40    38   ar
    64    17    16   ar
    65    17    19   ar
    66    16    15   ar
    67    33    34    1
    68    35     2    1
    69    35    36   ar
    70    62    63    1
    71    62    64   ar
    72    38    36   ar
    73    38    39    1
    74     1    15    1
    75     1     5    1
    76    20    19    1
    77    19    21   ar
    78     2    46    1
    79     2     6    1
    80    15    23   ar
    81    66    64   ar
    82    66    67    1
    83    36    37    1
    84    64    65    1
    85    56    55    1
    86    21    23   ar
    87    21    22    1
    88    23    24    1
    89    46    55   ar
    90    46    47   ar
    91    55    53   ar
    92    48    47    1
    93    47    49   ar
    94     5     6   ar
    95     5    13   ar
    96     6     7   ar
    97    53    54    1
    98    53    51   ar
    99    49    51   ar
   100    49    50    1
   101    51    52    1
   102    13    14    1
   103    13    11   ar
   104     7     8    1
   105     7     9   ar
   106    11     9   ar
   107    11    12    1
   108     9    10    1
