@<TRIPOS>MOLECULE
1,2,3,4
 94 96 0 0 0
SMALL
GASTEIGER

@<TRIPOS>ATOM
      1 SI          9.9427    4.4218    9.3301 Si      1  UNL1        0.0000
      2 P           7.1352    4.7332   10.2342 P.3     1  UNL1        0.0000
      3 P           8.7017    3.3474    6.8595 P.3     1  UNL1        0.0000
      4 P           9.6332    1.6447   10.3277 P.3     1  UNL1        0.0000
      5 C           9.6413    5.6522   10.7624 C.ar    1  UNL1        0.0000
      6 C          10.6211    6.3837   11.4076 C.ar    1  UNL1        0.0000
      7 H          11.6374    6.3507   11.0426 H       1  UNL1        0.0000
      8 C          10.3149    7.1358   12.5295 C.ar    1  UNL1        0.0000
      9 H          11.0849    7.7057   13.0301 H       1  UNL1        0.0000
     10 C           9.0221    7.1364   13.0245 C.ar    1  UNL1        0.0000
     11 H           8.7841    7.7020   13.9145 H       1  UNL1        0.0000
     12 C           8.0291    6.4098   12.3877 C.ar    1  UNL1        0.0000
     13 H           7.0337    6.4076   12.8078 H       1  UNL1        0.0000
     14 C           8.3312    5.6762   11.2477 C.ar    1  UNL1        0.0000
     15 C           6.3084    6.1838    9.3634 C.3     1  UNL1        0.0000
     16 H           5.5687    5.7267    8.6949 H       1  UNL1        0.0000
     17 C           7.3427    6.9108    8.5138 C.3     1  UNL1        0.0000
     18 H           6.8656    7.6814    7.9089 H       1  UNL1        0.0000
     19 H           7.8507    6.2167    7.8512 H       1  UNL1        0.0000
     20 H           8.0931    7.3868    9.1434 H       1  UNL1        0.0000
     21 C           5.6046    7.1931   10.2660 C.3     1  UNL1        0.0000
     22 H           6.3112    7.6528   10.9532 H       1  UNL1        0.0000
     23 H           4.7903    6.7521   10.8340 H       1  UNL1        0.0000
     24 H           5.1831    7.9834    9.6448 H       1  UNL1        0.0000
     25 C           5.7815    4.2575   11.4376 C.3     1  UNL1        0.0000
     26 H           5.5427    5.1253   12.0611 H       1  UNL1        0.0000
     27 C           4.5251    3.8199   10.6898 C.3     1  UNL1        0.0000
     28 H           4.7486    2.9935   10.0208 H       1  UNL1        0.0000
     29 H           4.0996    4.6307   10.1030 H       1  UNL1        0.0000
     30 H           3.7697    3.4833   11.3995 H       1  UNL1        0.0000
     31 C           6.2861    3.1327   12.3315 C.3     1  UNL1        0.0000
     32 H           5.4864    2.7635   12.9727 H       1  UNL1        0.0000
     33 H           7.1030    3.4772   12.9620 H       1  UNL1        0.0000
     34 H           6.6444    2.3082   11.7143 H       1  UNL1        0.0000
     35 C          10.2178    5.4331    7.7307 C.ar    1  UNL1        0.0000
     36 C          10.9280    6.6161    7.6445 C.ar    1  UNL1        0.0000
     37 H          11.4561    6.9847    8.5118 H       1  UNL1        0.0000
     38 C          10.9467    7.3422    6.4653 C.ar    1  UNL1        0.0000
     39 H          11.5036    8.2665    6.4033 H       1  UNL1        0.0000
     40 C          10.2284    6.8932    5.3704 C.ar    1  UNL1        0.0000
     41 H          10.2201    7.4693    4.4557 H       1  UNL1        0.0000
     42 C           9.5128    5.7090    5.4414 C.ar    1  UNL1        0.0000
     43 H           8.9411    5.3929    4.5809 H       1  UNL1        0.0000
     44 C           9.5152    4.9680    6.6162 C.ar    1  UNL1        0.0000
     45 C           7.2660    3.3675    5.6572 C.3     1  UNL1        0.0000
     46 H           7.6139    3.7682    4.6996 H       1  UNL1        0.0000
     47 C           6.1751    4.2777    6.2052 C.3     1  UNL1        0.0000
     48 H           5.2846    4.2302    5.5792 H       1  UNL1        0.0000
     49 H           6.5160    5.3102    6.2426 H       1  UNL1        0.0000
     50 H           5.9075    3.9608    7.2136 H       1  UNL1        0.0000
     51 C           6.7230    1.9579    5.4401 C.3     1  UNL1        0.0000
     52 H           6.4163    1.5182    6.3850 H       1  UNL1        0.0000
     53 H           7.4622    1.3049    4.9819 H       1  UNL1        0.0000
     54 H           5.8514    1.9932    4.7870 H       1  UNL1        0.0000
     55 C           9.9215    2.2783    5.9036 C.3     1  UNL1        0.0000
     56 H           9.5390    1.2554    6.0049 H       1  UNL1        0.0000
     57 C          10.0797    2.6039    4.4212 C.3     1  UNL1        0.0000
     58 H          10.4463    3.6191    4.2874 H       1  UNL1        0.0000
     59 H           9.1553    2.4823    3.8636 H       1  UNL1        0.0000
     60 H          10.8162    1.9253    3.9908 H       1  UNL1        0.0000
     61 C          11.2845    2.3536    6.5794 C.3     1  UNL1        0.0000
     62 H          11.9777    1.6499    6.1194 H       1  UNL1        0.0000
     63 H          11.2020    2.1170    7.6360 H       1  UNL1        0.0000
     64 H          11.7044    3.3545    6.4898 H       1  UNL1        0.0000
     65 C          11.5566    3.4683    9.7079 C.ar    1  UNL1        0.0000
     66 C          12.8361    3.9638    9.5388 C.ar    1  UNL1        0.0000
     67 H          12.9738    4.9965    9.2533 H       1  UNL1        0.0000
     68 C          13.9379    3.1420    9.7079 C.ar    1  UNL1        0.0000
     69 H          14.9361    3.5345    9.5742 H       1  UNL1        0.0000
     70 C          13.7569    1.8067   10.0250 C.ar    1  UNL1        0.0000
     71 H          14.6130    1.1557   10.1339 H       1  UNL1        0.0000
     72 C          12.4808    1.2961   10.1988 C.ar    1  UNL1        0.0000
     73 H          12.3658    0.2454   10.4225 H       1  UNL1        0.0000
     74 C          11.3769    2.1266   10.0541 C.ar    1  UNL1        0.0000
     75 C           9.5999   -0.1901    9.9541 C.3     1  UNL1        0.0000
     76 H          10.4713   -0.6600   10.4217 H       1  UNL1        0.0000
     77 C           9.6822   -0.3900    8.4467 C.3     1  UNL1        0.0000
     78 H           9.5635   -1.4426    8.1919 H       1  UNL1        0.0000
     79 H          10.6412   -0.0481    8.0634 H       1  UNL1        0.0000
     80 H           8.8883    0.1765    7.9593 H       1  UNL1        0.0000
     81 C           8.3309   -0.8325   10.5071 C.3     1  UNL1        0.0000
     82 H           7.4490   -0.3520   10.0930 H       1  UNL1        0.0000
     83 H           8.2814   -0.7644   11.5914 H       1  UNL1        0.0000
     84 H           8.2997   -1.8866   10.2325 H       1  UNL1        0.0000
     85 C           9.6479    1.5988   12.2101 C.3     1  UNL1        0.0000
     86 H           8.6210    1.3370   12.4931 H       1  UNL1        0.0000
     87 C          10.6086    0.5999   12.8488 C.3     1  UNL1        0.0000
     88 H          11.6365    0.8259   12.5748 H       1  UNL1        0.0000
     89 H          10.3855   -0.4286   12.5793 H       1  UNL1        0.0000
     90 H          10.5280    0.6815   13.9328 H       1  UNL1        0.0000
     91 C           9.9540    2.9937   12.7398 C.3     1  UNL1        0.0000
     92 H           9.8526    3.0205   13.8244 H       1  UNL1        0.0000
     93 H           9.2743    3.7238   12.3110 H       1  UNL1        0.0000
     94 H          10.9708    3.2886   12.4844 H       1  UNL1        0.0000
@<TRIPOS>BOND
     1    59    57    1
     2    60    57    1
     3    58    57    1
     4    57    55    1
     5    41    40    1
     6    43    42    1
     7    46    45    1
     8    54    51    1
     9    53    51    1
    10    40    42   ar
    11    40    38   ar
    12    51    45    1
    13    51    52    1
    14    42    44   ar
    15    48    47    1
    16    45    47    1
    17    45     3    1
    18    55    56    1
    19    55    61    1
    20    55     3    1
    21    62    61    1
    22    47    49    1
    23    47    50    1
    24    39    38    1
    25    38    36   ar
    26    64    61    1
    27    61    63    1
    28    44     3    1
    29    44    35   ar
    30    36    35   ar
    31    36    37    1
    32    35     1    1
    33    19    17    1
    34    18    17    1
    35    80    77    1
    36    79    77    1
    37    78    77    1
    38    77    75    1
    39    17    20    1
    40    17    15    1
    41    16    15    1
    42    67    66    1
    43     1    65    1
    44     1     5    1
    45    15     2    1
    46    15    21    1
    47    66    68   ar
    48    66    65   ar
    49    69    68    1
    50    24    21    1
    51    68    70   ar
    52    65    74   ar
    53    75     4    1
    54    75    76    1
    55    75    81    1
    56    28    27    1
    57    70    71    1
    58    70    72   ar
    59    74    72   ar
    60    74     4    1
    61    82    81    1
    62    29    27    1
    63    72    73    1
    64    84    81    1
    65     2    14    1
    66     2    25    1
    67    21    23    1
    68    21    22    1
    69     4    85    1
    70    81    83    1
    71    27    30    1
    72    27    25    1
    73     5    14   ar
    74     5     6   ar
    75     7     6    1
    76    14    12   ar
    77     6     8   ar
    78    25    26    1
    79    25    31    1
    80    34    31    1
    81    85    86    1
    82    85    91    1
    83    85    87    1
    84    93    91    1
    85    31    33    1
    86    31    32    1
    87    12    13    1
    88    12    10   ar
    89    94    91    1
    90     8    10   ar
    91     8     9    1
    92    88    87    1
    93    89    87    1
    94    91    92    1
    95    87    90    1
    96    10    11    1
