@<TRIPOS>MOLECULE
1,2,3,4
 94 96 0 0 0
SMALL
GASTEIGER

@<TRIPOS>ATOM
      1 P           5.9175   12.7492    2.1961 P.3     1  UNL1        0.0000
      2 P           1.9140   12.6888    2.0209 P.3     1  UNL1        0.0000
      3 P           3.9708    9.2448    2.0547 P.3     1  UNL1        0.0000
      4 SI          3.8531   11.5294    3.9723 Si      1  UNL1        0.0000
      5 C           5.5874   11.8027    4.7309 C.ar    1  UNL1        0.0000
      6 C           6.5606   12.2557    3.8356 C.ar    1  UNL1        0.0000
      7 C           7.8876   12.3357    4.2379 C.ar    1  UNL1        0.0000
      8 H           8.6629   12.6406    3.5500 H       1  UNL1        0.0000
      9 C           8.2391   11.9914    5.5329 C.ar    1  UNL1        0.0000
     10 H           9.2737   12.0504    5.8405 H       1  UNL1        0.0000
     11 C           7.2730   11.5673    6.4292 C.ar    1  UNL1        0.0000
     12 H           7.5531   11.3003    7.4385 H       1  UNL1        0.0000
     13 C           5.9541   11.4631    6.0201 C.ar    1  UNL1        0.0000
     14 H           5.2053   11.0954    6.7067 H       1  UNL1        0.0000
     15 C           7.3609   12.4956    1.0309 C.3     1  UNL1        0.0000
     16 H           8.2639   12.9123    1.4893 H       1  UNL1        0.0000
     17 C           7.5638   11.0019    0.8122 C.3     1  UNL1        0.0000
     18 H           6.6374   10.5530    0.4538 H       1  UNL1        0.0000
     19 H           7.8546   10.5110    1.7387 H       1  UNL1        0.0000
     20 H           8.3406   10.8262    0.0689 H       1  UNL1        0.0000
     21 C           7.1059   13.1978   -0.3007 C.3     1  UNL1        0.0000
     22 H           7.9417   13.0216   -0.9773 H       1  UNL1        0.0000
     23 H           6.9931   14.2723   -0.1758 H       1  UNL1        0.0000
     24 H           6.2066   12.8100   -0.7729 H       1  UNL1        0.0000
     25 C           5.9776   14.6179    2.4158 C.3     1  UNL1        0.0000
     26 H           5.5680   15.0262    1.4838 H       1  UNL1        0.0000
     27 C           7.3598   15.2187    2.6532 C.3     1  UNL1        0.0000
     28 H           7.2565   16.2964    2.7793 H       1  UNL1        0.0000
     29 H           8.0380   15.0485    1.8217 H       1  UNL1        0.0000
     30 H           7.8022   14.8193    3.5629 H       1  UNL1        0.0000
     31 C           5.0549   15.0127    3.5621 C.3     1  UNL1        0.0000
     32 H           5.4351   14.6353    4.5102 H       1  UNL1        0.0000
     33 H           4.0596   14.6045    3.4129 H       1  UNL1        0.0000
     34 H           4.9774   16.0972    3.6326 H       1  UNL1        0.0000
     35 C           2.6924   12.9022    4.6252 C.ar    1  UNL1        0.0000
     36 C           1.8874   13.5076    3.6562 C.ar    1  UNL1        0.0000
     37 C           1.1219   14.6181    3.9879 C.ar    1  UNL1        0.0000
     38 H           0.5261   15.1286    3.2451 H       1  UNL1        0.0000
     39 C           1.1380   15.1065    5.2842 C.ar    1  UNL1        0.0000
     40 H           0.5442   15.9737    5.5369 H       1  UNL1        0.0000
     41 C           1.9149   14.4929    6.2518 C.ar    1  UNL1        0.0000
     42 H           1.9237   14.8785    7.2615 H       1  UNL1        0.0000
     43 C           2.6979   13.4015    5.9145 C.ar    1  UNL1        0.0000
     44 H           3.3347   12.9457    6.6588 H       1  UNL1        0.0000
     45 C           1.5143   14.0571    0.8071 C.3     1  UNL1        0.0000
     46 H           0.6677   14.6351    1.1920 H       1  UNL1        0.0000
     47 C           2.7225   14.9762    0.6819 C.3     1  UNL1        0.0000
     48 H           3.6000   14.3938    0.4005 H       1  UNL1        0.0000
     49 H           2.9249   15.4800    1.6248 H       1  UNL1        0.0000
     50 H           2.5512   15.7314   -0.0842 H       1  UNL1        0.0000
     51 C           1.1455   13.4765   -0.5560 C.3     1  UNL1        0.0000
     52 H           0.9347   14.2841   -1.2565 H       1  UNL1        0.0000
     53 H           0.2655   12.8397   -0.4995 H       1  UNL1        0.0000
     54 H           1.9683   12.8910   -0.9590 H       1  UNL1        0.0000
     55 C           0.2527   11.8086    2.1100 C.3     1  UNL1        0.0000
     56 H           0.1840   11.2379    1.1757 H       1  UNL1        0.0000
     57 C           0.2749   10.8271    3.2752 C.3     1  UNL1        0.0000
     58 H           1.1388   10.1720    3.2101 H       1  UNL1        0.0000
     59 H          -0.6258   10.2141    3.2742 H       1  UNL1        0.0000
     60 H           0.3257   11.3579    4.2247 H       1  UNL1        0.0000
     61 C          -0.9743   12.7071    2.2316 C.3     1  UNL1        0.0000
     62 H          -1.8634   12.0793    2.2887 H       1  UNL1        0.0000
     63 H          -1.0936   13.3695    1.3787 H       1  UNL1        0.0000
     64 H          -0.9286   13.3008    3.1418 H       1  UNL1        0.0000
     65 C           3.1936    9.8467    4.5978 C.ar    1  UNL1        0.0000
     66 C           3.1500    8.8329    3.6366 C.ar    1  UNL1        0.0000
     67 C           2.5475    7.6185    3.9390 C.ar    1  UNL1        0.0000
     68 H           2.4630    6.8364    3.1984 H       1  UNL1        0.0000
     69 C           2.0155    7.4059    5.2003 C.ar    1  UNL1        0.0000
     70 H           1.5440    6.4606    5.4301 H       1  UNL1        0.0000
     71 C           2.0803    8.3995    6.1620 C.ar    1  UNL1        0.0000
     72 H           1.6638    8.2279    7.1445 H       1  UNL1        0.0000
     73 C           2.6578    9.6194    5.8520 C.ar    1  UNL1        0.0000
     74 H           2.6745   10.4094    6.5887 H       1  UNL1        0.0000
     75 C           3.0837    8.1950    0.7832 C.3     1  UNL1        0.0000
     76 H           2.9775    7.1785    1.1762 H       1  UNL1        0.0000
     77 C           1.6971    8.7771    0.5414 C.3     1  UNL1        0.0000
     78 H           1.7835    9.8233    0.2479 H       1  UNL1        0.0000
     79 H           1.0890    8.7153    1.4415 H       1  UNL1        0.0000
     80 H           1.1894    8.2371   -0.2569 H       1  UNL1        0.0000
     81 C           3.8742    8.1466   -0.5221 C.3     1  UNL1        0.0000
     82 H           3.3354    7.5506   -1.2582 H       1  UNL1        0.0000
     83 H           4.8577    7.7033   -0.3829 H       1  UNL1        0.0000
     84 H           4.0022    9.1461   -0.9306 H       1  UNL1        0.0000
     85 C           5.5519    8.2486    2.2797 C.3     1  UNL1        0.0000
     86 H           6.1493    8.4607    1.3844 H       1  UNL1        0.0000
     87 C           5.3790    6.7386    2.4124 C.3     1  UNL1        0.0000
     88 H           6.3601    6.2846    2.5511 H       1  UNL1        0.0000
     89 H           4.9308    6.2899    1.5303 H       1  UNL1        0.0000
     90 H           4.7751    6.4953    3.2835 H       1  UNL1        0.0000
     91 C           6.3014    8.7772    3.4963 C.3     1  UNL1        0.0000
     92 H           5.7446    8.5740    4.4099 H       1  UNL1        0.0000
     93 H           6.4453    9.8511    3.4225 H       1  UNL1        0.0000
     94 H           7.2782    8.3016    3.5785 H       1  UNL1        0.0000
@<TRIPOS>BOND
     1    82    81    1
     2    52    51    1
     3    22    21    1
     4    54    51    1
     5    84    81    1
     6    24    21    1
     7    51    53    1
     8    51    45    1
     9    81    83    1
    10    81    75    1
    11    21    23    1
    12    21    15    1
    13    80    77    1
    14    50    47    1
    15    20    17    1
    16    78    77    1
    17    48    47    1
    18    18    17    1
    19    77    75    1
    20    77    79    1
    21    47    45    1
    22    47    49    1
    23    75    76    1
    24    75     3    1
    25    45    46    1
    26    45     2    1
    27    17    15    1
    28    17    19    1
    29    15    16    1
    30    15     1    1
    31    56    55    1
    32    63    61    1
    33    86    85    1
    34    26    25    1
    35    89    87    1
    36    29    27    1
    37     2    55    1
    38     2    36    1
    39     3    85    1
    40     3    66    1
    41    55    61    1
    42    55    57    1
    43     1    25    1
    44     1     6    1
    45    61    62    1
    46    61    64    1
    47    85    87    1
    48    85    91    1
    49    87    88    1
    50    87    90    1
    51    25    27    1
    52    25    31    1
    53    27    28    1
    54    27    30    1
    55    68    67    1
    56    58    57    1
    57    38    37    1
    58    59    57    1
    59    57    60    1
    60    33    31    1
    61    93    91    1
    62    91    94    1
    63    91    92    1
    64     8     7    1
    65    31    34    1
    66    31    32    1
    67    66    67   ar
    68    66    65   ar
    69    36    37   ar
    70    36    35   ar
    71     6     7   ar
    72     6     5   ar
    73    67    69   ar
    74     4    65    1
    75     4    35    1
    76     4     5    1
    77    37    39   ar
    78     7     9   ar
    79    65    73   ar
    80    35    43   ar
    81     5    13   ar
    82    69    70    1
    83    69    71   ar
    84    39    40    1
    85    39    41   ar
    86     9    10    1
    87     9    11   ar
    88    73    71   ar
    89    73    74    1
    90    43    41   ar
    91    43    44    1
    92    13    11   ar
    93    13    14    1
    94    71    72    1
    95    41    42    1
    96    11    12    1
