@<TRIPOS>MOLECULE
1,2,3,4
 94 96 0 0 0
SMALL
GASTEIGER

@<TRIPOS>ATOM
      1 P           2.6792   10.7939    2.0713 P.3     1  UNL1        0.0000
      2 P           5.4229   10.6487    4.1485 P.3     1  UNL1        0.0000
      3 P           2.7158    7.5183    3.5207 P.3     1  UNL1        0.0000
      4 SI          4.8088    8.7845    2.0032 Si      1  UNL1        0.0000
      5 C           2.0412    6.8443    5.1319 C.3     1  UNL1        0.0000
      6 H           1.9412    5.7642    4.9784 H       1  UNL1        0.0000
      7 C           2.8657   10.0141    0.4249 C.ar    1  UNL1        0.0000
      8 C           5.4164   12.4924    4.5889 C.3     1  UNL1        0.0000
      9 H           5.5668   12.9744    3.6116 H       1  UNL1        0.0000
     10 C           2.0778   10.2553   -0.6942 C.ar    1  UNL1        0.0000
     11 H           1.1889   10.8669   -0.6334 H       1  UNL1        0.0000
     12 C           6.5278    9.5849    1.8948 C.ar    1  UNL1        0.0000
     13 C           5.0624    6.9235    2.2953 C.ar    1  UNL1        0.0000
     14 C           4.2868    8.5892   -0.8913 C.ar    1  UNL1        0.0000
     15 H           5.1319    7.9206   -0.9593 H       1  UNL1        0.0000
     16 C           6.1348    6.1519    1.8897 C.ar    1  UNL1        0.0000
     17 H           6.8722    6.5750    1.2243 H       1  UNL1        0.0000
     18 C           6.7669   10.5186    2.9026 C.ar    1  UNL1        0.0000
     19 C           5.3539    4.3329    3.2362 C.ar    1  UNL1        0.0000
     20 H           5.4776    3.3303    3.6214 H       1  UNL1        0.0000
     21 C           6.2793    4.8530    2.3486 C.ar    1  UNL1        0.0000
     22 H           7.1217    4.2540    2.0329 H       1  UNL1        0.0000
     23 C           7.9660   11.2190    2.9225 C.ar    1  UNL1        0.0000
     24 H           8.1762   11.9502    3.6865 H       1  UNL1        0.0000
     25 C           6.4005    9.9247    5.5635 C.3     1  UNL1        0.0000
     26 H           7.2670   10.5870    5.6896 H       1  UNL1        0.0000
     27 C           3.3277   12.4997    1.5731 C.3     1  UNL1        0.0000
     28 H           3.4106   13.0577    2.5128 H       1  UNL1        0.0000
     29 C           6.4666   13.0395    5.5571 C.3     1  UNL1        0.0000
     30 H           6.3453   14.1218    5.6142 H       1  UNL1        0.0000
     31 H           7.4871   12.8433    5.2435 H       1  UNL1        0.0000
     32 H           6.3331   12.6395    6.5588 H       1  UNL1        0.0000
     33 C           0.5660   12.1574    3.3176 C.3     1  UNL1        0.0000
     34 H          -0.4949   12.4073    3.3295 H       1  UNL1        0.0000
     35 H           1.1307   13.0823    3.2196 H       1  UNL1        0.0000
     36 H           0.8118   11.7045    4.2738 H       1  UNL1        0.0000
     37 C           1.4385    6.6908    2.3770 C.3     1  UNL1        0.0000
     38 H           0.5074    7.2478    2.5286 H       1  UNL1        0.0000
     39 C           3.5177    8.8531   -2.0126 C.ar    1  UNL1        0.0000
     40 H           3.7704    8.4071   -2.9640 H       1  UNL1        0.0000
     41 C           2.9943    7.0531    6.3000 C.3     1  UNL1        0.0000
     42 H           2.9916    8.0938    6.6107 H       1  UNL1        0.0000
     43 H           4.0103    6.7665    6.0305 H       1  UNL1        0.0000
     44 H           2.6796    6.4473    7.1498 H       1  UNL1        0.0000
     45 C           4.1115    6.3876    3.1671 C.ar    1  UNL1        0.0000
     46 C           4.0365   12.8843    5.1127 C.3     1  UNL1        0.0000
     47 H           3.9031   12.5539    6.1409 H       1  UNL1        0.0000
     48 H           3.2524   12.4245    4.5133 H       1  UNL1        0.0000
     49 H           3.9105   13.9667    5.0872 H       1  UNL1        0.0000
     50 C           4.2674    5.0920    3.6425 C.ar    1  UNL1        0.0000
     51 H           3.5760    4.6644    4.3542 H       1  UNL1        0.0000
     52 C           5.5795    9.8959    6.8447 C.3     1  UNL1        0.0000
     53 H           4.7520    9.2020    6.7322 H       1  UNL1        0.0000
     54 H           5.1661   10.8740    7.0804 H       1  UNL1        0.0000
     55 H           6.1930    9.5676    7.6832 H       1  UNL1        0.0000
     56 C           4.7230   12.3520    0.9772 C.3     1  UNL1        0.0000
     57 H           4.6781   11.8837   -0.0048 H       1  UNL1        0.0000
     58 H           5.3527   11.7362    1.6143 H       1  UNL1        0.0000
     59 H           5.1946   13.3284    0.8666 H       1  UNL1        0.0000
     60 C           1.8664    6.8567    0.9258 C.3     1  UNL1        0.0000
     61 H           2.8370    6.3938    0.7515 H       1  UNL1        0.0000
     62 H           1.9367    7.9056    0.6627 H       1  UNL1        0.0000
     63 H           1.1404    6.3884    0.2614 H       1  UNL1        0.0000
     64 C           8.9150   10.9923    1.9399 C.ar    1  UNL1        0.0000
     65 H           9.8455   11.5419    1.9596 H       1  UNL1        0.0000
     66 C           0.0891    9.8902    2.3834 C.3     1  UNL1        0.0000
     67 H           0.5084    9.3613    3.2418 H       1  UNL1        0.0000
     68 H           0.1678    9.2556    1.5025 H       1  UNL1        0.0000
     69 H          -0.9647   10.0886    2.5761 H       1  UNL1        0.0000
     70 C           8.6747   10.0719    0.9341 C.ar    1  UNL1        0.0000
     71 H           9.4163    9.9050    0.1659 H       1  UNL1        0.0000
     72 C           3.9681    9.1570    0.3281 C.ar    1  UNL1        0.0000
     73 C           6.9111    8.5312    5.2146 C.3     1  UNL1        0.0000
     74 H           7.4337    8.1019    6.0683 H       1  UNL1        0.0000
     75 H           7.5954    8.5610    4.3685 H       1  UNL1        0.0000
     76 H           6.0832    7.8727    4.9537 H       1  UNL1        0.0000
     77 C           7.4786    9.3751    0.9146 C.ar    1  UNL1        0.0000
     78 H           7.2774    8.6709    0.1216 H       1  UNL1        0.0000
     79 C           2.4058    9.6711   -1.9072 C.ar    1  UNL1        0.0000
     80 H           1.7860    9.8556   -2.7734 H       1  UNL1        0.0000
     81 C           2.4707   13.3131    0.6047 C.3     1  UNL1        0.0000
     82 H           2.9926   14.2449    0.3853 H       1  UNL1        0.0000
     83 H           1.4984   13.5719    1.0140 H       1  UNL1        0.0000
     84 H           2.3370   12.7834   -0.3353 H       1  UNL1        0.0000
     85 C           0.8563   11.1853    2.1781 C.3     1  UNL1        0.0000
     86 H           0.5481   11.6388    1.2298 H       1  UNL1        0.0000
     87 C           0.6630    7.4146    5.4578 C.3     1  UNL1        0.0000
     88 H           0.3078    6.9976    6.4001 H       1  UNL1        0.0000
     89 H          -0.0662    7.1747    4.6866 H       1  UNL1        0.0000
     90 H           0.7074    8.4948    5.5674 H       1  UNL1        0.0000
     91 C           1.1525    5.2109    2.6302 C.3     1  UNL1        0.0000
     92 H           0.4790    4.8555    1.8500 H       1  UNL1        0.0000
     93 H           0.6623    5.0304    3.5829 H       1  UNL1        0.0000
     94 H           2.0636    4.6200    2.5730 H       1  UNL1        0.0000
@<TRIPOS>BOND
     1    40    39    1
     2    80    79    1
     3    39    79   ar
     4    39    14   ar
     5    79    10   ar
     6    15    14    1
     7    14    72   ar
     8    10    11    1
     9    10     7   ar
    10    84    81    1
    11    57    56    1
    12    78    77    1
    13    71    70    1
    14    63    60    1
    15    72     7   ar
    16    72     4    1
    17    82    81    1
    18     7     1    1
    19    81    83    1
    20    81    27    1
    21    62    60    1
    22    61    60    1
    23    59    56    1
    24    77    70   ar
    25    77    12   ar
    26    60    37    1
    27    70    64   ar
    28    56    27    1
    29    56    58    1
    30    17    16    1
    31    86    85    1
    32    68    66    1
    33    27     1    1
    34    27    28    1
    35    92    91    1
    36    16    13   ar
    37    16    21   ar
    38    12     4    1
    39    12    18   ar
    40    64    65    1
    41    64    23   ar
    42     4    13    1
    43    22    21    1
    44     1    85    1
    45    85    66    1
    46    85    33    1
    47    13    45   ar
    48    21    19   ar
    49    37    38    1
    50    37    91    1
    51    37     3    1
    52    66    69    1
    53    66    67    1
    54    94    91    1
    55    91    93    1
    56    18    23   ar
    57    18     2    1
    58    23    24    1
    59    45     3    1
    60    45    50   ar
    61    35    33    1
    62    19    20    1
    63    19    50   ar
    64    33    34    1
    65    33    36    1
    66     3     5    1
    67     9     8    1
    68    50    51    1
    69     2     8    1
    70     2    25    1
    71    75    73    1
    72    48    46    1
    73     8    46    1
    74     8    29    1
    75    89    87    1
    76    76    73    1
    77     6     5    1
    78    49    46    1
    79    46    47    1
    80     5    87    1
    81     5    41    1
    82    73    25    1
    83    73    74    1
    84    31    29    1
    85    87    90    1
    86    87    88    1
    87    29    30    1
    88    29    32    1
    89    25    26    1
    90    25    52    1
    91    43    41    1
    92    41    42    1
    93    41    44    1
    94    53    52    1
    95    52    54    1
    96    52    55    1
