@<TRIPOS>MOLECULE
1,2,3,4
 94 96 0 0 0
SMALL
GASTEIGER

@<TRIPOS>ATOM
      1 SI          7.7525    7.1322   16.7687 Si      1  UNL1        0.0000
      2 P           5.8366    8.1706   18.8733 P.3     1  UNL1        0.0000
      3 P           9.8001    9.3785   17.1212 P.3     1  UNL1        0.0000
      4 P           9.2450    6.6020   19.3768 P.3     1  UNL1        0.0000
      5 C           5.9478    7.4253   16.2135 C.ar    1  UNL1        0.0000
      6 C           5.4524    7.2278   14.9374 C.ar    1  UNL1        0.0000
      7 H           6.0831    6.7687   14.1908 H       1  UNL1        0.0000
      8 C           4.1698    7.6283   14.6020 C.ar    1  UNL1        0.0000
      9 H           3.7926    7.4695   13.6017 H       1  UNL1        0.0000
     10 C           3.3811    8.2562   15.5493 C.ar    1  UNL1        0.0000
     11 H           2.3889    8.5976   15.2893 H       1  UNL1        0.0000
     12 C           3.8602    8.4572   16.8342 C.ar    1  UNL1        0.0000
     13 H           3.2309    8.9746   17.5432 H       1  UNL1        0.0000
     14 C           5.1389    8.0360   17.1792 C.ar    1  UNL1        0.0000
     15 C           8.9832    7.4181   15.3343 C.ar    1  UNL1        0.0000
     16 C           9.0318    6.6841   14.1632 C.ar    1  UNL1        0.0000
     17 H           8.3060    5.9017   13.9990 H       1  UNL1        0.0000
     18 C          10.0042    6.9285   13.2087 C.ar    1  UNL1        0.0000
     19 H          10.0320    6.3489   12.2970 H       1  UNL1        0.0000
     20 C          10.9471    7.9168   13.4313 C.ar    1  UNL1        0.0000
     21 H          11.7116    8.1147   12.6932 H       1  UNL1        0.0000
     22 C          10.9172    8.6546   14.6022 C.ar    1  UNL1        0.0000
     23 H          11.6662    9.4152   14.7551 H       1  UNL1        0.0000
     24 C           9.9416    8.4103   15.5610 C.ar    1  UNL1        0.0000
     25 C           7.9755    5.3011   17.3118 C.ar    1  UNL1        0.0000
     26 C           7.5074    4.2068   16.6056 C.ar    1  UNL1        0.0000
     27 H           7.0644    4.3573   15.6320 H       1  UNL1        0.0000
     28 C           7.5796    2.9314   17.1406 C.ar    1  UNL1        0.0000
     29 H           7.2114    2.0838   16.5804 H       1  UNL1        0.0000
     30 C           8.1028    2.7482   18.4087 C.ar    1  UNL1        0.0000
     31 H           8.1360    1.7594   18.8443 H       1  UNL1        0.0000
     32 C           8.5833    3.8302   19.1283 C.ar    1  UNL1        0.0000
     33 H           8.9610    3.6637   20.1269 H       1  UNL1        0.0000
     34 C           8.5366    5.1078   18.5820 C.ar    1  UNL1        0.0000
     35 C           4.9285    9.6321   19.6158 C.3     1  UNL1        0.0000
     36 H           3.8599    9.4480   19.4641 H       1  UNL1        0.0000
     37 C           5.2736   10.9503   18.9345 C.3     1  UNL1        0.0000
     38 H           4.5877   11.7290   19.2677 H       1  UNL1        0.0000
     39 H           5.1971   10.8611   17.8513 H       1  UNL1        0.0000
     40 H           6.2848   11.2602   19.1914 H       1  UNL1        0.0000
     41 C           5.2045    9.7181   21.1160 C.3     1  UNL1        0.0000
     42 H           6.2679    9.8583   21.3033 H       1  UNL1        0.0000
     43 H           4.8751    8.8215   21.6381 H       1  UNL1        0.0000
     44 H           4.6766   10.5715   21.5407 H       1  UNL1        0.0000
     45 C           4.8372    6.7833   19.6973 C.3     1  UNL1        0.0000
     46 H           5.1971    6.7468   20.7323 H       1  UNL1        0.0000
     47 C           3.3189    6.9424   19.7261 C.3     1  UNL1        0.0000
     48 H           2.9178    7.0392   18.7200 H       1  UNL1        0.0000
     49 H           2.9943    7.7862   20.3288 H       1  UNL1        0.0000
     50 H           2.8890    6.0434   20.1682 H       1  UNL1        0.0000
     51 C           5.1760    5.4616   19.0208 C.3     1  UNL1        0.0000
     52 H           4.6895    4.6335   19.5357 H       1  UNL1        0.0000
     53 H           6.2470    5.2880   19.0312 H       1  UNL1        0.0000
     54 H           4.8426    5.4634   17.9838 H       1  UNL1        0.0000
     55 C           9.3745   11.0228   16.3375 C.3     1  UNL1        0.0000
     56 H          10.2462   11.3041   15.7337 H       1  UNL1        0.0000
     57 C           9.1223   12.0811   17.4045 C.3     1  UNL1        0.0000
     58 H           8.8909   13.0395   16.9413 H       1  UNL1        0.0000
     59 H           9.9856   12.2130   18.0535 H       1  UNL1        0.0000
     60 H           8.2769   11.7871   18.0247 H       1  UNL1        0.0000
     61 C           8.1729   10.8910   15.4072 C.3     1  UNL1        0.0000
     62 H           7.3128   10.4921   15.9441 H       1  UNL1        0.0000
     63 H           8.3911   10.2247   14.5747 H       1  UNL1        0.0000
     64 H           7.9056   11.8683   15.0076 H       1  UNL1        0.0000
     65 C          11.5908    9.6523   17.6780 C.3     1  UNL1        0.0000
     66 H          12.0792    8.6933   17.4546 H       1  UNL1        0.0000
     67 C          11.5954    9.8605   19.1930 C.3     1  UNL1        0.0000
     68 H          12.6087    9.7843   19.5871 H       1  UNL1        0.0000
     69 H          10.9741    9.1165   19.6926 H       1  UNL1        0.0000
     70 H          11.2050   10.8439   19.4508 H       1  UNL1        0.0000
     71 C          12.4130   10.7712   17.0388 C.3     1  UNL1        0.0000
     72 H          12.0044   11.7503   17.2754 H       1  UNL1        0.0000
     73 H          12.4936   10.6831   15.9595 H       1  UNL1        0.0000
     74 H          13.4239   10.7276   17.4454 H       1  UNL1        0.0000
     75 C          11.0631    6.1940   19.0378 C.3     1  UNL1        0.0000
     76 H          11.6186    7.0932   19.3301 H       1  UNL1        0.0000
     77 C          11.2589    5.9733   17.5415 C.3     1  UNL1        0.0000
     78 H          12.3208    5.9391   17.2982 H       1  UNL1        0.0000
     79 H          10.7998    6.7744   16.9657 H       1  UNL1        0.0000
     80 H          10.8084    5.0331   17.2275 H       1  UNL1        0.0000
     81 C          11.6521    5.0008   19.7869 C.3     1  UNL1        0.0000
     82 H          11.1106    4.0879   19.5511 H       1  UNL1        0.0000
     83 H          11.6654    5.1435   20.8638 H       1  UNL1        0.0000
     84 H          12.6837    4.8650   19.4612 H       1  UNL1        0.0000
     85 C           9.1791    6.2449   21.2116 C.3     1  UNL1        0.0000
     86 H           9.5636    5.2357   21.3917 H       1  UNL1        0.0000
     87 C          10.0346    7.2540   21.9755 C.3     1  UNL1        0.0000
     88 H           9.6457    8.2626   21.8460 H       1  UNL1        0.0000
     89 H          11.0719    7.2398   21.6462 H       1  UNL1        0.0000
     90 H          10.0146    7.0250   23.0408 H       1  UNL1        0.0000
     91 C           7.7352    6.3174   21.6844 C.3     1  UNL1        0.0000
     92 H           7.6788    6.2113   22.7673 H       1  UNL1        0.0000
     93 H           7.1410    5.5282   21.2265 H       1  UNL1        0.0000
     94 H           7.3100    7.2869   21.4109 H       1  UNL1        0.0000
@<TRIPOS>BOND
     1    19    18    1
     2    21    20    1
     3    18    20   ar
     4    18    16   ar
     5    20    22   ar
     6     9     8    1
     7    17    16    1
     8    16    15   ar
     9     7     6    1
    10    63    61    1
    11     8     6   ar
    12     8    10   ar
    13    22    23    1
    14    22    24   ar
    15     6     5   ar
    16    64    61    1
    17    11    10    1
    18    15    24   ar
    19    15     1    1
    20    61    62    1
    21    61    55    1
    22    10    12   ar
    23    24     3    1
    24    27    26    1
    25    56    55    1
    26    73    71    1
    27     5     1    1
    28     5    14   ar
    29    55     3    1
    30    55    57    1
    31    29    28    1
    32    26    28   ar
    33    26    25   ar
    34     1    25    1
    35    12    14   ar
    36    12    13    1
    37    58    57    1
    38    79    77    1
    39    71    72    1
    40    71    74    1
    41    71    65    1
    42     3    65    1
    43    28    30   ar
    44    14     2    1
    45    80    77    1
    46    78    77    1
    47    25    34   ar
    48    57    60    1
    49    57    59    1
    50    66    65    1
    51    77    75    1
    52    65    67    1
    53    39    37    1
    54    54    51    1
    55    30    31    1
    56    30    32   ar
    57    34    32   ar
    58    34     4    1
    59    48    47    1
    60     2    35    1
    61     2    45    1
    62    37    40    1
    63    37    38    1
    64    37    35    1
    65    51    53    1
    66    51    52    1
    67    51    45    1
    68    75    76    1
    69    75     4    1
    70    75    81    1
    71    32    33    1
    72    67    70    1
    73    67    68    1
    74    67    69    1
    75     4    85    1
    76    84    81    1
    77    36    35    1
    78    82    81    1
    79    35    41    1
    80    45    47    1
    81    45    46    1
    82    47    50    1
    83    47    49    1
    84    81    83    1
    85    41    42    1
    86    41    44    1
    87    41    43    1
    88    85    86    1
    89    85    91    1
    90    85    87    1
    91    93    91    1
    92    94    91    1
    93    89    87    1
    94    91    92    1
    95    88    87    1
    96    87    90    1
