@<TRIPOS>MOLECULE
1,2,3,4
 100 108 0 0 0
SMALL
GASTEIGER

@<TRIPOS>ATOM
      1 SI         -0.5922    4.4688   13.1819 Si      1  UNL1        0.0000
      2 P           0.6958    6.6197   11.4594 P.3     1  UNL1        0.0000
      3 P          -1.8469    7.1673   13.8281 P.3     1  UNL1        0.0000
      4 P          -1.6486    4.3567   10.3961 P.3     1  UNL1        0.0000
      5 C           1.3112    4.4024   12.9948 C.ar    1  UNL1        0.0000
      6 C           2.1597    3.4902   13.6039 C.ar    1  UNL1        0.0000
      7 H           1.7417    2.6970   14.2063 H       1  UNL1        0.0000
      8 C           3.5296    3.5919   13.4469 C.ar    1  UNL1        0.0000
      9 H           4.1852    2.8750   13.9209 H       1  UNL1        0.0000
     10 C           4.0674    4.6291   12.6981 C.ar    1  UNL1        0.0000
     11 H           5.1395    4.7256   12.5995 H       1  UNL1        0.0000
     12 C           3.2349    5.5437   12.0824 C.ar    1  UNL1        0.0000
     13 H           3.6530    6.3662   11.5159 H       1  UNL1        0.0000
     14 C           1.8539    5.4096   12.2043 C.ar    1  UNL1        0.0000
     15 C          -0.9501    4.8375   15.0217 C.ar    1  UNL1        0.0000
     16 C          -0.7115    3.9935   16.0925 C.ar    1  UNL1        0.0000
     17 H          -0.2053    3.0543   15.9270 H       1  UNL1        0.0000
     18 C          -1.1171    4.3368   17.3706 C.ar    1  UNL1        0.0000
     19 H          -0.9234    3.6697   18.1987 H       1  UNL1        0.0000
     20 C          -1.7991    5.5244   17.5862 C.ar    1  UNL1        0.0000
     21 H          -2.1512    5.7752   18.5769 H       1  UNL1        0.0000
     22 C          -2.0343    6.3873   16.5313 C.ar    1  UNL1        0.0000
     23 H          -2.5954    7.3001   16.6892 H       1  UNL1        0.0000
     24 C          -1.5802    6.0591   15.2566 C.ar    1  UNL1        0.0000
     25 C          -1.1027    2.7364   12.5684 C.ar    1  UNL1        0.0000
     26 C          -1.0575    1.5312   13.2478 C.ar    1  UNL1        0.0000
     27 H          -0.7560    1.5132   14.2845 H       1  UNL1        0.0000
     28 C          -1.4094    0.3513   12.6150 C.ar    1  UNL1        0.0000
     29 H          -1.3754   -0.5838   13.1563 H       1  UNL1        0.0000
     30 C          -1.8090    0.3640   11.2869 C.ar    1  UNL1        0.0000
     31 H          -2.0848   -0.5582   10.7955 H       1  UNL1        0.0000
     32 C          -1.8652    1.5593   10.5944 C.ar    1  UNL1        0.0000
     33 H          -2.1890    1.5808    9.5609 H       1  UNL1        0.0000
     34 C          -1.5107    2.7412   11.2370 C.ar    1  UNL1        0.0000
     35 C           1.5167    8.0662   12.2460 C.ar    1  UNL1        0.0000
     36 C           2.0067    9.1888   11.5930 C.ar    1  UNL1        0.0000
     37 H           1.8986    9.2930   10.5236 H       1  UNL1        0.0000
     38 C           2.6642   10.1765   12.3073 C.ar    1  UNL1        0.0000
     39 H           3.0448   11.0446   11.7879 H       1  UNL1        0.0000
     40 C           2.8519   10.0496   13.6715 C.ar    1  UNL1        0.0000
     41 H           3.3811   10.8146   14.2205 H       1  UNL1        0.0000
     42 C           2.3613    8.9344   14.3312 C.ar    1  UNL1        0.0000
     43 H           2.5074    8.8258   15.3960 H       1  UNL1        0.0000
     44 C           1.6873    7.9591   13.6257 C.ar    1  UNL1        0.0000
     45 H           1.2964    7.0874   14.1418 H       1  UNL1        0.0000
     46 C           1.3629    6.7588    9.7605 C.ar    1  UNL1        0.0000
     47 C           2.2805    5.8776    9.2005 C.ar    1  UNL1        0.0000
     48 H           2.6203    5.0152    9.7555 H       1  UNL1        0.0000
     49 C           2.7583    6.0964    7.9207 C.ar    1  UNL1        0.0000
     50 H           3.4829    5.4140    7.5000 H       1  UNL1        0.0000
     51 C           2.3143    7.1776    7.1784 C.ar    1  UNL1        0.0000
     52 H           2.7009    7.3466    6.1838 H       1  UNL1        0.0000
     53 C           1.3567    8.0270    7.7076 C.ar    1  UNL1        0.0000
     54 H           0.9761    8.8551    7.1261 H       1  UNL1        0.0000
     55 C           0.8823    7.8124    8.9867 C.ar    1  UNL1        0.0000
     56 H           0.1193    8.4597    9.3974 H       1  UNL1        0.0000
     57 C          -3.5989    7.6129   14.1319 C.ar    1  UNL1        0.0000
     58 C          -4.4768    6.5678   14.4110 C.ar    1  UNL1        0.0000
     59 H          -4.0906    5.5583   14.4771 H       1  UNL1        0.0000
     60 C          -5.8217    6.8142   14.5998 C.ar    1  UNL1        0.0000
     61 H          -6.4933    5.9971   14.8210 H       1  UNL1        0.0000
     62 C          -6.3098    8.1078   14.5055 C.ar    1  UNL1        0.0000
     63 H          -7.3616    8.3028   14.6541 H       1  UNL1        0.0000
     64 C          -5.4458    9.1487   14.2176 C.ar    1  UNL1        0.0000
     65 H          -5.8226   10.1581   14.1377 H       1  UNL1        0.0000
     66 C          -4.0966    8.9056   14.0277 C.ar    1  UNL1        0.0000
     67 H          -3.4324    9.7294   13.8057 H       1  UNL1        0.0000
     68 C          -1.0752    8.7530   14.3381 C.ar    1  UNL1        0.0000
     69 C          -0.5955    9.0472   15.6077 C.ar    1  UNL1        0.0000
     70 H          -0.5915    8.2919   16.3791 H       1  UNL1        0.0000
     71 C          -0.0943   10.3071   15.8859 C.ar    1  UNL1        0.0000
     72 H           0.2712   10.5279   16.8787 H       1  UNL1        0.0000
     73 C          -0.0537   11.2805   14.9034 C.ar    1  UNL1        0.0000
     74 H           0.3373   12.2620   15.1275 H       1  UNL1        0.0000
     75 C          -0.5014   10.9860   13.6259 C.ar    1  UNL1        0.0000
     76 H          -0.4541   11.7353   12.8486 H       1  UNL1        0.0000
     77 C          -1.0048    9.7308   13.3480 C.ar    1  UNL1        0.0000
     78 H          -1.3421    9.4833   12.3464 H       1  UNL1        0.0000
     79 C          -3.3082    4.0955    9.6524 C.ar    1  UNL1        0.0000
     80 C          -3.6372    4.2507    8.3117 C.ar    1  UNL1        0.0000
     81 H          -2.8739    4.4849    7.5836 H       1  UNL1        0.0000
     82 C          -4.9465    4.0845    7.8904 C.ar    1  UNL1        0.0000
     83 H          -5.1889    4.2112    6.8447 H       1  UNL1        0.0000
     84 C          -5.9389    3.7531    8.7952 C.ar    1  UNL1        0.0000
     85 H          -6.9582    3.6275    8.4609 H       1  UNL1        0.0000
     86 C          -5.6156    3.5734   10.1310 C.ar    1  UNL1        0.0000
     87 H          -6.3822    3.3012   10.8424 H       1  UNL1        0.0000
     88 C          -4.3128    3.7452   10.5544 C.ar    1  UNL1        0.0000
     89 H          -4.0567    3.6098   11.5984 H       1  UNL1        0.0000
     90 C          -0.5807    4.1398    8.9338 C.ar    1  UNL1        0.0000
     91 C           0.2877    3.0696    8.7617 C.ar    1  UNL1        0.0000
     92 H           0.3908    2.3258    9.5398 H       1  UNL1        0.0000
     93 C           1.0167    2.9540    7.5907 C.ar    1  UNL1        0.0000
     94 H           1.6864    2.1161    7.4586 H       1  UNL1        0.0000
     95 C           0.8816    3.8969    6.5864 C.ar    1  UNL1        0.0000
     96 H           1.4325    3.7875    5.6636 H       1  UNL1        0.0000
     97 C           0.0551    4.9937    6.7742 C.ar    1  UNL1        0.0000
     98 H          -0.0332    5.7473    6.0050 H       1  UNL1        0.0000
     99 C          -0.6526    5.1275    7.9520 C.ar    1  UNL1        0.0000
    100 H          -1.2635    6.0052    8.1277 H       1  UNL1        0.0000
@<TRIPOS>BOND
     1    96    95    1
     2    98    97    1
     3    52    51    1
     4    95    97   ar
     5    95    93   ar
     6    97    99   ar
     7    83    82    1
     8    54    53    1
     9    51    53   ar
    10    51    49   ar
    11    94    93    1
    12    50    49    1
    13    81    80    1
    14    93    91   ar
    15    53    55   ar
    16    82    80   ar
    17    82    84   ar
    18    49    47   ar
    19    99   100    1
    20    99    90   ar
    21    80    79   ar
    22    85    84    1
    23    91    90   ar
    24    91    92    1
    25    84    86   ar
    26    90     4    1
    27    55    56    1
    28    55    46   ar
    29    47    48    1
    30    47    46   ar
    31    33    32    1
    32    79     4    1
    33    79    88   ar
    34    46     2    1
    35    86    88   ar
    36    86    87    1
    37     4    34    1
    38    37    36    1
    39    88    89    1
    40    32    34   ar
    41    32    30   ar
    42    31    30    1
    43    34    25   ar
    44    30    28   ar
    45     2    14    1
    46     2    35    1
    47    13    12    1
    48    36    35   ar
    49    36    38   ar
    50    39    38    1
    51    12    14   ar
    52    12    10   ar
    53    14     5   ar
    54    35    44   ar
    55    38    40   ar
    56    78    77    1
    57    25     1    1
    58    25    26   ar
    59    11    10    1
    60    28    29    1
    61    28    26   ar
    62    10     8   ar
    63    76    75    1
    64     5     1    1
    65     5     6   ar
    66     1    15    1
    67    26    27    1
    68    77    75   ar
    69    77    68   ar
    70     8     6   ar
    71     8     9    1
    72     6     7    1
    73    44    45    1
    74    44    42   ar
    75    75    73   ar
    76    40    41    1
    77    40    42   ar
    78    67    66    1
    79     3    57    1
    80     3    68    1
    81     3    24    1
    82    66    57   ar
    83    66    64   ar
    84    57    58   ar
    85    65    64    1
    86    64    62   ar
    87    42    43    1
    88    68    69   ar
    89    58    59    1
    90    58    60   ar
    91    62    60   ar
    92    62    63    1
    93    60    61    1
    94    73    74    1
    95    73    71   ar
    96    15    24   ar
    97    15    16   ar
    98    24    22   ar
    99    69    71   ar
   100    69    70    1
   101    71    72    1
   102    17    16    1
   103    16    18   ar
   104    22    23    1
   105    22    20   ar
   106    18    20   ar
   107    18    19    1
   108    20    21    1
