@<TRIPOS>MOLECULE
1,2,3,4
 100 108 0 0 0
SMALL
GASTEIGER

@<TRIPOS>ATOM
      1 SI          3.0538   14.8195    3.6770 Si      1  UNL1        0.0000
      2 P           3.5680   16.6166    5.9341 P.3     1  UNL1        0.0000
      3 P           6.0652   14.7922    4.2363 P.3     1  UNL1        0.0000
      4 P           4.5112   16.2543    1.6262 P.3     1  UNL1        0.0000
      5 C           2.1662   14.3592    5.2885 C.ar    1  UNL1        0.0000
      6 C           1.3360   13.2761    5.5044 C.ar    1  UNL1        0.0000
      7 H           1.0157   12.6765    4.6650 H       1  UNL1        0.0000
      8 C           0.9336   12.9466    6.7879 C.ar    1  UNL1        0.0000
      9 H           0.2883   12.0955    6.9528 H       1  UNL1        0.0000
     10 C           1.3825   13.6938    7.8641 C.ar    1  UNL1        0.0000
     11 H           1.0928   13.4218    8.8692 H       1  UNL1        0.0000
     12 C           2.2027   14.7915    7.6621 C.ar    1  UNL1        0.0000
     13 H           2.5559   15.3576    8.5119 H       1  UNL1        0.0000
     14 C           2.5800   15.1360    6.3725 C.ar    1  UNL1        0.0000
     15 C           4.0492   13.2279    3.2415 C.ar    1  UNL1        0.0000
     16 C           3.4924   12.1031    2.6523 C.ar    1  UNL1        0.0000
     17 H           2.4228   12.0574    2.5051 H       1  UNL1        0.0000
     18 C           4.2912   11.0547    2.2306 C.ar    1  UNL1        0.0000
     19 H           3.8454   10.1867    1.7659 H       1  UNL1        0.0000
     20 C           5.6655   11.1264    2.3912 C.ar    1  UNL1        0.0000
     21 H           6.2937   10.3158    2.0505 H       1  UNL1        0.0000
     22 C           6.2399   12.2377    2.9827 C.ar    1  UNL1        0.0000
     23 H           7.3131   12.2899    3.0933 H       1  UNL1        0.0000
     24 C           5.4335   13.2872    3.4076 C.ar    1  UNL1        0.0000
     25 C           2.1577   14.8648    2.0034 C.ar    1  UNL1        0.0000
     26 C           0.9371   14.3397    1.6253 C.ar    1  UNL1        0.0000
     27 H           0.2620   13.9616    2.3801 H       1  UNL1        0.0000
     28 C           0.5802   14.3008    0.2875 C.ar    1  UNL1        0.0000
     29 H          -0.3780   13.8958   -0.0061 H       1  UNL1        0.0000
     30 C           1.4574   14.7646   -0.6807 C.ar    1  UNL1        0.0000
     31 H           1.1833   14.7161   -1.7249 H       1  UNL1        0.0000
     32 C           2.6793   15.3016   -0.3148 C.ar    1  UNL1        0.0000
     33 H           3.3639   15.6626   -1.0708 H       1  UNL1        0.0000
     34 C           3.0199   15.3606    1.0290 C.ar    1  UNL1        0.0000
     35 C           2.2155   17.8134    5.6229 C.ar    1  UNL1        0.0000
     36 C           1.0025   17.4414    5.0503 C.ar    1  UNL1        0.0000
     37 H           0.8017   16.4006    4.8339 H       1  UNL1        0.0000
     38 C           0.0461   18.4011    4.7699 C.ar    1  UNL1        0.0000
     39 H          -0.8959   18.1042    4.3319 H       1  UNL1        0.0000
     40 C           0.2904   19.7354    5.0517 C.ar    1  UNL1        0.0000
     41 H          -0.4617   20.4799    4.8345 H       1  UNL1        0.0000
     42 C           1.5023   20.1125    5.6093 C.ar    1  UNL1        0.0000
     43 H           1.7053   21.1511    5.8270 H       1  UNL1        0.0000
     44 C           2.4637   19.1596    5.8897 C.ar    1  UNL1        0.0000
     45 H           3.4104   19.4539    6.3225 H       1  UNL1        0.0000
     46 C           4.1070   17.2062    7.5759 C.ar    1  UNL1        0.0000
     47 C           3.2137   17.6940    8.5289 C.ar    1  UNL1        0.0000
     48 H           2.1600   17.7720    8.2941 H       1  UNL1        0.0000
     49 C           3.6787   18.0907    9.7677 C.ar    1  UNL1        0.0000
     50 H           2.9854   18.4736   10.5032 H       1  UNL1        0.0000
     51 C           5.0291   17.9989   10.0701 C.ar    1  UNL1        0.0000
     52 H           5.3842   18.3080   11.0425 H       1  UNL1        0.0000
     53 C           5.9191   17.5229    9.1239 C.ar    1  UNL1        0.0000
     54 H           6.9732   17.4626    9.3526 H       1  UNL1        0.0000
     55 C           5.4588   17.1369    7.8775 C.ar    1  UNL1        0.0000
     56 H           6.1375   16.7903    7.1118 H       1  UNL1        0.0000
     57 C           6.1974   14.2054    5.9559 C.ar    1  UNL1        0.0000
     58 C           7.2121   14.6902    6.7799 C.ar    1  UNL1        0.0000
     59 H           7.9570   15.3578    6.3656 H       1  UNL1        0.0000
     60 C           7.2644   14.3168    8.1098 C.ar    1  UNL1        0.0000
     61 H           8.0591   14.6859    8.7418 H       1  UNL1        0.0000
     62 C           6.2946   13.4778    8.6352 C.ar    1  UNL1        0.0000
     63 H           6.3323   13.1950    9.6769 H       1  UNL1        0.0000
     64 C           5.2803   12.9994    7.8229 C.ar    1  UNL1        0.0000
     65 H           4.5230   12.3440    8.2282 H       1  UNL1        0.0000
     66 C           5.2320   13.3559    6.4874 C.ar    1  UNL1        0.0000
     67 H           4.4511   12.9647    5.8499 H       1  UNL1        0.0000
     68 C           7.8067   14.7607    3.6889 C.ar    1  UNL1        0.0000
     69 C           8.1575   15.5722    2.6194 C.ar    1  UNL1        0.0000
     70 H           7.4245   16.2619    2.2267 H       1  UNL1        0.0000
     71 C           9.4276   15.5155    2.0766 C.ar    1  UNL1        0.0000
     72 H           9.6815   16.1554    1.2447 H       1  UNL1        0.0000
     73 C          10.3650   14.6470    2.6081 C.ar    1  UNL1        0.0000
     74 H          11.3612   14.6014    2.1930 H       1  UNL1        0.0000
     75 C          10.0251   13.8343    3.6789 C.ar    1  UNL1        0.0000
     76 H          10.7562   13.1559    4.0953 H       1  UNL1        0.0000
     77 C           8.7515   13.8802    4.2157 C.ar    1  UNL1        0.0000
     78 H           8.4926   13.2367    5.0460 H       1  UNL1        0.0000
     79 C           5.7206   15.8080    0.3499 C.ar    1  UNL1        0.0000
     80 C           5.8574   14.4557    0.0418 C.ar    1  UNL1        0.0000
     81 H           5.1723   13.7394    0.4792 H       1  UNL1        0.0000
     82 C           6.8574   14.0403   -0.8159 C.ar    1  UNL1        0.0000
     83 H           6.9597   12.9915   -1.0545 H       1  UNL1        0.0000
     84 C           7.7299   14.9670   -1.3644 C.ar    1  UNL1        0.0000
     85 H           8.5115   14.6403   -2.0347 H       1  UNL1        0.0000
     86 C           7.6071   16.3103   -1.0465 C.ar    1  UNL1        0.0000
     87 H           8.2929   17.0329   -1.4651 H       1  UNL1        0.0000
     88 C           6.6142   16.7331   -0.1829 C.ar    1  UNL1        0.0000
     89 H           6.5392   17.7761    0.0927 H       1  UNL1        0.0000
     90 C           3.8726   17.9038    1.2014 C.ar    1  UNL1        0.0000
     91 C           3.7925   18.4894   -0.0557 C.ar    1  UNL1        0.0000
     92 H           4.2183   17.9919   -0.9151 H       1  UNL1        0.0000
     93 C           3.1837   19.7249   -0.1937 C.ar    1  UNL1        0.0000
     94 H           3.1351   20.1919   -1.1668 H       1  UNL1        0.0000
     95 C           2.6319   20.3636    0.9053 C.ar    1  UNL1        0.0000
     96 H           2.1514   21.3233    0.7856 H       1  UNL1        0.0000
     97 C           2.6974   19.7799    2.1622 C.ar    1  UNL1        0.0000
     98 H           2.2694   20.2770    3.0203 H       1  UNL1        0.0000
     99 C           3.3254   18.5583    2.3061 C.ar    1  UNL1        0.0000
    100 H           3.3956   18.0915    3.3117 H       1  UNL1        0.0000
@<TRIPOS>BOND
     1    85    84    1
     2    31    30    1
     3    87    86    1
     4    84    86   ar
     5    84    82   ar
     6    94    93    1
     7    33    32    1
     8    83    82    1
     9    86    88   ar
    10    92    91    1
    11    82    80   ar
    12    30    32   ar
    13    30    28   ar
    14    32    34   ar
    15    93    91   ar
    16    93    95   ar
    17    88    89    1
    18    88    79   ar
    19    91    90   ar
    20    29    28    1
    21    80    79   ar
    22    80    81    1
    23    28    26   ar
    24    79     4    1
    25    96    95    1
    26    95    97   ar
    27    34     4    1
    28    34    25   ar
    29    90     4    1
    30    90    99   ar
    31    72    71    1
    32    26    25   ar
    33    26    27    1
    34    19    18    1
    35    25     1    1
    36    21    20    1
    37    71    73   ar
    38    71    69   ar
    39    97    99   ar
    40    97    98    1
    41    74    73    1
    42    70    69    1
    43    18    20   ar
    44    18    16   ar
    45    99   100    1
    46    20    22   ar
    47    17    16    1
    48    73    75   ar
    49    69    68   ar
    50    16    15   ar
    51    22    23    1
    52    22    24   ar
    53    15    24   ar
    54    15     1    1
    55    24     3    1
    56     1     5    1
    57    75    76    1
    58    75    77   ar
    59    68    77   ar
    60    68     3    1
    61    77    78    1
    62     3    57    1
    63    39    38    1
    64     7     6    1
    65    38    36   ar
    66    38    40   ar
    67    37    36    1
    68    41    40    1
    69    36    35   ar
    70    40    42   ar
    71     5     6   ar
    72     5    14   ar
    73     6     8   ar
    74    42    43    1
    75    42    44   ar
    76    35    44   ar
    77    35     2    1
    78    67    66    1
    79    44    45    1
    80     2    14    1
    81     2    46    1
    82    57    66   ar
    83    57    58   ar
    84    59    58    1
    85    14    12   ar
    86    66    64   ar
    87    58    60   ar
    88     8     9    1
    89     8    10   ar
    90    56    55    1
    91    46    55   ar
    92    46    47   ar
    93    12    10   ar
    94    12    13    1
    95    64    65    1
    96    64    62   ar
    97    10    11    1
    98    55    53   ar
    99    60    62   ar
   100    60    61    1
   101    48    47    1
   102    47    49   ar
   103    62    63    1
   104    53    54    1
   105    53    51   ar
   106    49    51   ar
   107    49    50    1
   108    51    52    1
