@<TRIPOS>MOLECULE
1,2,3,4
 100 108 0 0 0
SMALL
GASTEIGER

@<TRIPOS>ATOM
      1 SI         16.0790   24.0889    4.8835 Si      1  UNL1        0.0000
      2 P          18.4158   22.8134    3.4995 P.3     1  UNL1        0.0000
      3 P          17.6168   25.7274    6.7034 P.3     1  UNL1        0.0000
      4 P          17.4235   26.1718    3.2545 P.3     1  UNL1        0.0000
      5 C          15.7128   22.4860    3.9285 C.ar    1  UNL1        0.0000
      6 C          14.4890   21.8502    3.8296 C.ar    1  UNL1        0.0000
      7 H          13.6054   22.3367    4.2148 H       1  UNL1        0.0000
      8 C          14.3916   20.6010    3.2411 C.ar    1  UNL1        0.0000
      9 H          13.4315   20.1113    3.1602 H       1  UNL1        0.0000
     10 C          15.5345   19.9587    2.7917 C.ar    1  UNL1        0.0000
     11 H          15.4688   18.9602    2.3829 H       1  UNL1        0.0000
     12 C          16.7637   20.5895    2.8707 C.ar    1  UNL1        0.0000
     13 H          17.6573   20.0634    2.5617 H       1  UNL1        0.0000
     14 C          16.8440   21.8764    3.3924 C.ar    1  UNL1        0.0000
     15 C          15.4344   24.0505    6.6681 C.ar    1  UNL1        0.0000
     16 C          14.3528   23.3754    7.2023 C.ar    1  UNL1        0.0000
     17 H          13.8233   22.6528    6.5989 H       1  UNL1        0.0000
     18 C          13.9604   23.6132    8.5088 C.ar    1  UNL1        0.0000
     19 H          13.1209   23.0771    8.9289 H       1  UNL1        0.0000
     20 C          14.6368   24.5467    9.2795 C.ar    1  UNL1        0.0000
     21 H          14.3192   24.7413   10.2942 H       1  UNL1        0.0000
     22 C          15.7261   25.2221    8.7589 C.ar    1  UNL1        0.0000
     23 H          16.2561   25.9460    9.3637 H       1  UNL1        0.0000
     24 C          16.1294   24.9605    7.4556 C.ar    1  UNL1        0.0000
     25 C          14.9515   25.4706    4.1593 C.ar    1  UNL1        0.0000
     26 C          13.5785   25.5848    4.3156 C.ar    1  UNL1        0.0000
     27 H          13.0501   24.8601    4.9189 H       1  UNL1        0.0000
     28 C          12.8881   26.6232    3.7151 C.ar    1  UNL1        0.0000
     29 H          11.8196   26.7140    3.8525 H       1  UNL1        0.0000
     30 C          13.5600   27.5361    2.9158 C.ar    1  UNL1        0.0000
     31 H          13.0126   28.3250    2.4192 H       1  UNL1        0.0000
     32 C          14.9291   27.4372    2.7483 C.ar    1  UNL1        0.0000
     33 H          15.4519   28.1294    2.1012 H       1  UNL1        0.0000
     34 C          15.6259   26.4318    3.4089 C.ar    1  UNL1        0.0000
     35 C          19.3955   21.4114    4.1525 C.ar    1  UNL1        0.0000
     36 C          19.1136   21.0733    5.4736 C.ar    1  UNL1        0.0000
     37 H          18.3834   21.6691    6.0159 H       1  UNL1        0.0000
     38 C          19.7497   20.0045    6.0725 C.ar    1  UNL1        0.0000
     39 H          19.5254   19.7431    7.0970 H       1  UNL1        0.0000
     40 C          20.6795   19.2671    5.3543 C.ar    1  UNL1        0.0000
     41 H          21.1826   18.4322    5.8198 H       1  UNL1        0.0000
     42 C          20.9643   19.6014    4.0414 C.ar    1  UNL1        0.0000
     43 H          21.6891   19.0255    3.4831 H       1  UNL1        0.0000
     44 C          20.3235   20.6686    3.4344 C.ar    1  UNL1        0.0000
     45 H          20.5484   20.9252    2.4073 H       1  UNL1        0.0000
     46 C          19.0152   22.9062    1.7667 C.ar    1  UNL1        0.0000
     47 C          18.6251   22.0858    0.7139 C.ar    1  UNL1        0.0000
     48 H          17.8890   21.3120    0.8640 H       1  UNL1        0.0000
     49 C          19.1605   22.2741   -0.5480 C.ar    1  UNL1        0.0000
     50 H          18.8501   21.6306   -1.3590 H       1  UNL1        0.0000
     51 C          20.0817   23.2809   -0.7802 C.ar    1  UNL1        0.0000
     52 H          20.4943   23.4207   -1.7687 H       1  UNL1        0.0000
     53 C          20.4573   24.1185    0.2564 C.ar    1  UNL1        0.0000
     54 H          21.1608   24.9195    0.0788 H       1  UNL1        0.0000
     55 C          19.9203   23.9338    1.5147 C.ar    1  UNL1        0.0000
     56 H          20.1791   24.6060    2.3271 H       1  UNL1        0.0000
     57 C          18.6415   25.5423    8.2135 C.ar    1  UNL1        0.0000
     58 C          19.1329   24.2541    8.4133 C.ar    1  UNL1        0.0000
     59 H          18.9538   23.5045    7.6466 H       1  UNL1        0.0000
     60 C          19.8429   23.9414    9.5554 C.ar    1  UNL1        0.0000
     61 H          20.2205   22.9392    9.7019 H       1  UNL1        0.0000
     62 C          20.0702   24.9173   10.5133 C.ar    1  UNL1        0.0000
     63 H          20.6303   24.6802   11.4061 H       1  UNL1        0.0000
     64 C          19.5746   26.1963   10.3261 C.ar    1  UNL1        0.0000
     65 H          19.7452   26.9562   11.0757 H       1  UNL1        0.0000
     66 C          18.8535   26.5115    9.1868 C.ar    1  UNL1        0.0000
     67 H          18.4649   27.5123    9.0558 H       1  UNL1        0.0000
     68 C          17.1304   27.4810    6.7452 C.ar    1  UNL1        0.0000
     69 C          15.7899   27.8499    6.6801 C.ar    1  UNL1        0.0000
     70 H          15.0245   27.0862    6.6377 H       1  UNL1        0.0000
     71 C          15.4392   29.1878    6.6747 C.ar    1  UNL1        0.0000
     72 H          14.3962   29.4673    6.6266 H       1  UNL1        0.0000
     73 C          16.4182   30.1659    6.7384 C.ar    1  UNL1        0.0000
     74 H          16.1395   31.2097    6.7547 H       1  UNL1        0.0000
     75 C          17.7561   29.8043    6.7644 C.ar    1  UNL1        0.0000
     76 H          18.5232   30.5651    6.7931 H       1  UNL1        0.0000
     77 C          18.1120   28.4697    6.7463 C.ar    1  UNL1        0.0000
     78 H          19.1559   28.1849    6.7340 H       1  UNL1        0.0000
     79 C          18.1579   27.8397    3.2596 C.ar    1  UNL1        0.0000
     80 C          19.4961   27.9070    2.8701 C.ar    1  UNL1        0.0000
     81 H          20.0048   26.9892    2.5948 H       1  UNL1        0.0000
     82 C          20.1607   29.1169    2.8411 C.ar    1  UNL1        0.0000
     83 H          21.1948   29.1614    2.5290 H       1  UNL1        0.0000
     84 C          19.4978   30.2755    3.2176 C.ar    1  UNL1        0.0000
     85 H          20.0128   31.2249    3.1919 H       1  UNL1        0.0000
     86 C          18.1811   30.2103    3.6378 C.ar    1  UNL1        0.0000
     87 H          17.6673   31.1091    3.9470 H       1  UNL1        0.0000
     88 C          17.5112   28.9984    3.6683 C.ar    1  UNL1        0.0000
     89 H          16.4907   28.9572    4.0197 H       1  UNL1        0.0000
     90 C          17.3632   25.8247    1.4530 C.ar    1  UNL1        0.0000
     91 C          17.9012   26.6221    0.4513 C.ar    1  UNL1        0.0000
     92 H          18.4452   27.5223    0.6988 H       1  UNL1        0.0000
     93 C          17.7390   26.2666   -0.8771 C.ar    1  UNL1        0.0000
     94 H          18.1654   26.8897   -1.6504 H       1  UNL1        0.0000
     95 C          17.0311   25.1285   -1.2184 C.ar    1  UNL1        0.0000
     96 H          16.9053   24.8595   -2.2569 H       1  UNL1        0.0000
     97 C          16.4800   24.3366   -0.2234 C.ar    1  UNL1        0.0000
     98 H          15.9197   23.4496   -0.4819 H       1  UNL1        0.0000
     99 C          16.6492   24.6810    1.1017 C.ar    1  UNL1        0.0000
    100 H          16.2238   24.0629    1.8850 H       1  UNL1        0.0000
@<TRIPOS>BOND
     1    96    95    1
     2    52    51    1
     3    94    93    1
     4    50    49    1
     5    95    93   ar
     6    95    97   ar
     7    93    91   ar
     8    51    49   ar
     9    51    53   ar
    10    49    47   ar
    11    98    97    1
    12    97    99   ar
    13    54    53    1
    14    53    55   ar
    15    91    92    1
    16    91    90   ar
    17    47    48    1
    18    47    46   ar
    19    99    90   ar
    20    99   100    1
    21    90     4    1
    22    55    46   ar
    23    55    56    1
    24    46     2    1
    25    33    32    1
    26    11    10    1
    27    45    44    1
    28    31    30    1
    29    83    82    1
    30    13    12    1
    31    81    80    1
    32    32    30   ar
    33    32    34   ar
    34    10    12   ar
    35    10     8   ar
    36    82    80   ar
    37    82    84   ar
    38    80    79   ar
    39    12    14   ar
    40    30    28   ar
    41     9     8    1
    42    85    84    1
    43    84    86   ar
    44     8     6   ar
    45     4    79    1
    46     4    34    1
    47    79    88   ar
    48    14     2    1
    49    14     5   ar
    50    34    25   ar
    51    44    42   ar
    52    44    35   ar
    53    43    42    1
    54     2    35    1
    55    86    88   ar
    56    86    87    1
    57    88    89    1
    58    28    29    1
    59    28    26   ar
    60     6     5   ar
    61     6     7    1
    62     5     1    1
    63    42    40   ar
    64    35    36   ar
    65    25    26   ar
    66    25     1    1
    67    26    27    1
    68     1    15    1
    69    40    41    1
    70    40    38   ar
    71    36    37    1
    72    36    38   ar
    73    38    39    1
    74    17    16    1
    75    72    71    1
    76    70    69    1
    77    15    16   ar
    78    15    24   ar
    79    71    69   ar
    80    71    73   ar
    81    69    68   ar
    82     3    68    1
    83     3    24    1
    84     3    57    1
    85    78    77    1
    86    73    74    1
    87    73    75   ar
    88    68    77   ar
    89    77    75   ar
    90    75    76    1
    91    16    18   ar
    92    24    22   ar
    93    59    58    1
    94    57    58   ar
    95    57    66   ar
    96    58    60   ar
    97    18    19    1
    98    18    20   ar
    99    22    20   ar
   100    22    23    1
   101    67    66    1
   102    66    64   ar
   103    20    21    1
   104    60    61    1
   105    60    62   ar
   106    64    62   ar
   107    64    65    1
   108    62    63    1
