@<TRIPOS>MOLECULE
1,2,3,4
 100 108 0 0 0
SMALL
GASTEIGER

@<TRIPOS>ATOM
      1 SI          1.7657    8.4803   12.6253 Si      1  UNL1        0.0000
      2 P           3.6127   10.6481   11.5559 P.3     1  UNL1        0.0000
      3 P           3.8228    9.2977   14.7002 P.3     1  UNL1        0.0000
      4 P           3.9976    6.3881   12.7847 P.3     1  UNL1        0.0000
      5 C           1.0058    9.7484   11.4102 C.ar    1  UNL1        0.0000
      6 C          -0.2902    9.7508   10.9228 C.ar    1  UNL1        0.0000
      7 H          -0.9830    8.9920   11.2530 H       1  UNL1        0.0000
      8 C          -0.7046   10.7076   10.0121 C.ar    1  UNL1        0.0000
      9 H          -1.7197   10.6983    9.6414 H       1  UNL1        0.0000
     10 C           0.1849   11.6704    9.5610 C.ar    1  UNL1        0.0000
     11 H          -0.1326   12.4036    8.8334 H       1  UNL1        0.0000
     12 C           1.4839   11.6860   10.0353 C.ar    1  UNL1        0.0000
     13 H           2.1881   12.4230    9.6721 H       1  UNL1        0.0000
     14 C           1.8851   10.7402   10.9714 C.ar    1  UNL1        0.0000
     15 C           1.1130    9.0284   14.3491 C.ar    1  UNL1        0.0000
     16 C          -0.2196    9.1142   14.7251 C.ar    1  UNL1        0.0000
     17 H          -0.9863    8.7784   14.0428 H       1  UNL1        0.0000
     18 C          -0.5736    9.6327   15.9589 C.ar    1  UNL1        0.0000
     19 H          -1.6145    9.6900   16.2438 H       1  UNL1        0.0000
     20 C           0.4038   10.1056   16.8213 C.ar    1  UNL1        0.0000
     21 H           0.1241   10.5403   17.7704 H       1  UNL1        0.0000
     22 C           1.7381   10.0300   16.4638 C.ar    1  UNL1        0.0000
     23 H           2.5014   10.4350   17.1156 H       1  UNL1        0.0000
     24 C           2.0926    9.4659   15.2418 C.ar    1  UNL1        0.0000
     25 C           1.2517    6.6557   12.3989 C.ar    1  UNL1        0.0000
     26 C          -0.0301    6.1681   12.2060 C.ar    1  UNL1        0.0000
     27 H          -0.8541    6.8592   12.1149 H       1  UNL1        0.0000
     28 C          -0.2670    4.8065   12.1326 C.ar    1  UNL1        0.0000
     29 H          -1.2715    4.4393   11.9770 H       1  UNL1        0.0000
     30 C           0.7813    3.9092   12.2701 C.ar    1  UNL1        0.0000
     31 H           0.5947    2.8459   12.2230 H       1  UNL1        0.0000
     32 C           2.0665    4.3771   12.4707 C.ar    1  UNL1        0.0000
     33 H           2.8901    3.6844   12.5896 H       1  UNL1        0.0000
     34 C           2.3020    5.7467   12.5197 C.ar    1  UNL1        0.0000
     35 C           4.4209   10.1987    9.9851 C.ar    1  UNL1        0.0000
     36 C           4.4729    8.8207    9.7602 C.ar    1  UNL1        0.0000
     37 H           3.9652    8.1303   10.4648 H       1  UNL1        0.0000
     38 C           5.1201    8.3147    8.6511 C.ar    1  UNL1        0.0000
     39 H           5.1730    7.2473    8.4917 H       1  UNL1        0.0000
     40 C           5.7138    9.1883    7.7516 C.ar    1  UNL1        0.0000
     41 H           6.2299    8.7972    6.8872 H       1  UNL1        0.0000
     42 C           5.6536   10.5555    7.9617 C.ar    1  UNL1        0.0000
     43 H           6.1207   11.2301    7.2585 H       1  UNL1        0.0000
     44 C           5.0119   11.0668    9.0772 C.ar    1  UNL1        0.0000
     45 H           4.9884   12.1337    9.2534 H       1  UNL1        0.0000
     46 C           4.1560   12.3556   11.8218 C.ar    1  UNL1        0.0000
     47 C           3.2882   13.4254   12.0115 C.ar    1  UNL1        0.0000
     48 H           2.2188   13.2664   11.9870 H       1  UNL1        0.0000
     49 C           3.8008   14.6914   12.2310 C.ar    1  UNL1        0.0000
     50 H           3.1274   15.5271   12.3594 H       1  UNL1        0.0000
     51 C           5.1702   14.8901   12.2914 C.ar    1  UNL1        0.0000
     52 H           5.5634   15.8822   12.4597 H       1  UNL1        0.0000
     53 C           6.0357   13.8161   12.1523 C.ar    1  UNL1        0.0000
     54 H           7.1029   13.9671   12.2230 H       1  UNL1        0.0000
     55 C           5.5333   12.5509   11.9227 C.ar    1  UNL1        0.0000
     56 H           6.1977   11.7011   11.8270 H       1  UNL1        0.0000
     57 C           4.4991   10.9531   15.0456 C.ar    1  UNL1        0.0000
     58 C           3.6759   12.0729   14.9607 C.ar    1  UNL1        0.0000
     59 H           2.6251   11.9493   14.7299 H       1  UNL1        0.0000
     60 C           4.1988   13.3332   15.1816 C.ar    1  UNL1        0.0000
     61 H           3.5525   14.1980   15.1390 H       1  UNL1        0.0000
     62 C           5.5492   13.4890   15.4462 C.ar    1  UNL1        0.0000
     63 H           5.9555   14.4760   15.6120 H       1  UNL1        0.0000
     64 C           6.3788   12.3803   15.4886 C.ar    1  UNL1        0.0000
     65 H           7.4354   12.5026   15.6772 H       1  UNL1        0.0000
     66 C           5.8588   11.1145   15.2943 C.ar    1  UNL1        0.0000
     67 H           6.5041   10.2485   15.3264 H       1  UNL1        0.0000
     68 C           4.6587    8.2858   15.9680 C.ar    1  UNL1        0.0000
     69 C           4.1493    8.0004   17.2292 C.ar    1  UNL1        0.0000
     70 H           3.1711    8.3537   17.5182 H       1  UNL1        0.0000
     71 C           4.8898    7.2359   18.1135 C.ar    1  UNL1        0.0000
     72 H           4.4910    7.0185   19.0943 H       1  UNL1        0.0000
     73 C           6.1316    6.7449   17.7484 C.ar    1  UNL1        0.0000
     74 H           6.7025    6.1483   18.4449 H       1  UNL1        0.0000
     75 C           6.6338    7.0084   16.4848 C.ar    1  UNL1        0.0000
     76 H           7.5958    6.6144   16.1910 H       1  UNL1        0.0000
     77 C           5.8995    7.7698   15.5962 C.ar    1  UNL1        0.0000
     78 H           6.2763    7.9684   14.5987 H       1  UNL1        0.0000
     79 C           4.4152    5.3409   14.2172 C.ar    1  UNL1        0.0000
     80 C           3.5477    5.4678   15.3011 C.ar    1  UNL1        0.0000
     81 H           2.7207    6.1671   15.2299 H       1  UNL1        0.0000
     82 C           3.7407    4.7120   16.4386 C.ar    1  UNL1        0.0000
     83 H           3.0607    4.8071   17.2725 H       1  UNL1        0.0000
     84 C           4.8086    3.8302   16.5086 C.ar    1  UNL1        0.0000
     85 H           4.9619    3.2378   17.3986 H       1  UNL1        0.0000
     86 C           5.6766    3.7082   15.4381 C.ar    1  UNL1        0.0000
     87 H           6.5072    3.0191   15.4920 H       1  UNL1        0.0000
     88 C           5.4841    4.4587   14.2905 C.ar    1  UNL1        0.0000
     89 H           6.1587    4.3469   13.4537 H       1  UNL1        0.0000
     90 C           4.9464    5.6441   11.4175 C.ar    1  UNL1        0.0000
     91 C           4.3582    5.0370   10.3124 C.ar    1  UNL1        0.0000
     92 H           3.2834    4.9253   10.2605 H       1  UNL1        0.0000
     93 C           5.1524    4.5797    9.2744 C.ar    1  UNL1        0.0000
     94 H           4.6923    4.1033    8.4199 H       1  UNL1        0.0000
     95 C           6.5277    4.7392    9.3227 C.ar    1  UNL1        0.0000
     96 H           7.1410    4.3830    8.5075 H       1  UNL1        0.0000
     97 C           7.1144    5.3744   10.4065 C.ar    1  UNL1        0.0000
     98 H           8.1839    5.5232   10.4339 H       1  UNL1        0.0000
     99 C           6.3290    5.8323   11.4468 C.ar    1  UNL1        0.0000
    100 H           6.7755    6.3679   12.2755 H       1  UNL1        0.0000
@<TRIPOS>BOND
     1    41    40    1
     2    43    42    1
     3    40    42   ar
     4    40    38   ar
     5    42    44   ar
     6    94    93    1
     7    39    38    1
     8    96    95    1
     9    38    36   ar
    10    11    10    1
    11    44    45    1
    12    44    35   ar
    13    93    95   ar
    14    93    91   ar
    15    95    97   ar
    16    10     8   ar
    17    10    12   ar
    18     9     8    1
    19    13    12    1
    20    36    35   ar
    21    36    37    1
    22    35     2    1
    23     8     6   ar
    24    12    14   ar
    25    92    91    1
    26    91    90   ar
    27    97    98    1
    28    97    99   ar
    29     6     7    1
    30     6     5   ar
    31    14     5   ar
    32    14     2    1
    33     5     1    1
    34    90    99   ar
    35    90     4    1
    36    99   100    1
    37     2    46    1
    38    46    55   ar
    39    46    47   ar
    40    56    55    1
    41    55    53   ar
    42    29    28    1
    43    48    47    1
    44    47    49   ar
    45    27    26    1
    46    28    26   ar
    47    28    30   ar
    48    53    54    1
    49    53    51   ar
    50    26    25   ar
    51    31    30    1
    52    49    51   ar
    53    49    50    1
    54    30    32   ar
    55    51    52    1
    56    25    34   ar
    57    25     1    1
    58    32    34   ar
    59    32    33    1
    60    34     4    1
    61     1    15    1
    62     4    79    1
    63    89    88    1
    64    17    16    1
    65    79    88   ar
    66    79    80   ar
    67    88    86   ar
    68    15    16   ar
    69    15    24   ar
    70    78    77    1
    71     3    57    1
    72     3    24    1
    73     3    68    1
    74    16    18   ar
    75    59    58    1
    76    58    57   ar
    77    58    60   ar
    78    57    66   ar
    79    61    60    1
    80    60    62   ar
    81    81    80    1
    82    24    22   ar
    83    66    67    1
    84    66    64   ar
    85    80    82   ar
    86    86    87    1
    87    86    84   ar
    88    62    64   ar
    89    62    63    1
    90    64    65    1
    91    77    68   ar
    92    77    75   ar
    93    18    19    1
    94    18    20   ar
    95    68    69   ar
    96    76    75    1
    97    82    84   ar
    98    82    83    1
    99    22    20   ar
   100    22    23    1
   101    75    73   ar
   102    84    85    1
   103    20    21    1
   104    69    70    1
   105    69    71   ar
   106    73    71   ar
   107    73    74    1
   108    71    72    1
