@<TRIPOS>MOLECULE
1,2,3,4
 94 96 0 0 0
SMALL
GASTEIGER

@<TRIPOS>ATOM
      1 SI          1.8798   14.3291    3.4289 Si      1  UNL1        0.0000
      2 P           0.1073   13.4136    1.3568 P.3     1  UNL1        0.0000
      3 P           3.2744   11.9080    2.7572 P.3     1  UNL1        0.0000
      4 P           3.3540   15.3296    1.1723 P.3     1  UNL1        0.0000
      5 C           1.5136   12.1022    6.9985 C.ar    1  UNL1        0.0000
      6 H           1.1102   12.2022    7.9964 H       1  UNL1        0.0000
      7 C           3.2702   10.1228    2.1733 C.3     1  UNL1        0.0000
      8 H           3.5295    9.4678    3.0114 H       1  UNL1        0.0000
      9 C           3.1058   15.7380    3.8329 C.ar    1  UNL1        0.0000
     10 C           1.3108   17.2164    1.2995 C.3     1  UNL1        0.0000
     11 H           1.6094   17.5251    2.3007 H       1  UNL1        0.0000
     12 H           0.6602   16.3515    1.3944 H       1  UNL1        0.0000
     13 H           0.7445   18.0297    0.8456 H       1  UNL1        0.0000
     14 C           2.5541   11.8366    4.4400 C.ar    1  UNL1        0.0000
     15 C           3.9018   16.0992    2.7421 C.ar    1  UNL1        0.0000
     16 C          -2.4829   12.1506    1.8281 C.3     1  UNL1        0.0000
     17 H          -2.9674   11.2457    2.1960 H       1  UNL1        0.0000
     18 H          -2.7979   12.2970    0.7987 H       1  UNL1        0.0000
     19 H          -2.8384   12.9850    2.4283 H       1  UNL1        0.0000
     20 C           5.3166   13.3237    4.0141 C.3     1  UNL1        0.0000
     21 H           4.7600   13.3661    4.9495 H       1  UNL1        0.0000
     22 H           4.9872   14.1488    3.3890 H       1  UNL1        0.0000
     23 H           6.3744   13.4586    4.2393 H       1  UNL1        0.0000
     24 C           0.1229   15.0774    3.4877 C.ar    1  UNL1        0.0000
     25 C           3.3953   18.1182    0.3041 C.3     1  UNL1        0.0000
     26 H           2.7929   18.9109   -0.1404 H       1  UNL1        0.0000
     27 H           4.2579   17.9619   -0.3378 H       1  UNL1        0.0000
     28 H           3.7364   18.4661    1.2764 H       1  UNL1        0.0000
     29 C          -0.3601   15.9945    4.4011 C.ar    1  UNL1        0.0000
     30 H           0.2533   16.2813    5.2425 H       1  UNL1        0.0000
     31 C           0.0092   14.7592   -1.0715 C.3     1  UNL1        0.0000
     32 H           1.0860   14.5823   -1.0681 H       1  UNL1        0.0000
     33 H          -0.1867   15.7129   -0.5869 H       1  UNL1        0.0000
     34 H          -0.3364   14.8209   -2.1035 H       1  UNL1        0.0000
     35 C           5.7774   14.1613    0.4876 C.3     1  UNL1        0.0000
     36 H           5.1847   13.2446    0.4795 H       1  UNL1        0.0000
     37 H           6.1806   14.3047    1.4874 H       1  UNL1        0.0000
     38 H           6.6113   14.0518   -0.2060 H       1  UNL1        0.0000
     39 C           2.5607   10.7524    5.3082 C.ar    1  UNL1        0.0000
     40 H           2.9435    9.7894    5.0016 H       1  UNL1        0.0000
     41 C          -1.6110   16.5649    4.2302 C.ar    1  UNL1        0.0000
     42 H          -1.9844   17.2837    4.9460 H       1  UNL1        0.0000
     43 C          -0.9718   11.9886    1.9741 C.3     1  UNL1        0.0000
     44 H          -0.6462   11.1223    1.3840 H       1  UNL1        0.0000
     45 C          -0.6895   13.6282   -0.3312 C.3     1  UNL1        0.0000
     46 H          -1.7431   13.8952   -0.1969 H       1  UNL1        0.0000
     47 C           1.4853   13.1760    6.1233 C.ar    1  UNL1        0.0000
     48 H           1.0432   14.1118    6.4317 H       1  UNL1        0.0000
     49 C           2.0372   10.8898    6.5838 C.ar    1  UNL1        0.0000
     50 H           2.0368   10.0425    7.2555 H       1  UNL1        0.0000
     51 C          -0.6616   14.7191    2.3878 C.ar    1  UNL1        0.0000
     52 C           1.9973   13.0527    4.8461 C.ar    1  UNL1        0.0000
     53 C           3.3491   16.3003    5.0712 C.ar    1  UNL1        0.0000
     54 H           2.7426   16.0098    5.9162 H       1  UNL1        0.0000
     55 C           4.3789   17.2118    5.2391 C.ar    1  UNL1        0.0000
     56 H           4.5672   17.6480    6.2101 H       1  UNL1        0.0000
     57 C          -2.3740   16.2309    3.1246 C.ar    1  UNL1        0.0000
     58 H          -3.3401   16.6928    2.9747 H       1  UNL1        0.0000
     59 C           2.5273   16.8710    0.4527 C.3     1  UNL1        0.0000
     60 H           2.1791   16.5577   -0.5399 H       1  UNL1        0.0000
     61 C           5.0835   11.9979    3.3038 C.3     1  UNL1        0.0000
     62 H           5.6544   12.0039    2.3666 H       1  UNL1        0.0000
     63 C          -1.9059   15.3080    2.2030 C.ar    1  UNL1        0.0000
     64 H          -2.5128   15.0809    1.3382 H       1  UNL1        0.0000
     65 C           4.4920   15.2318   -1.3766 C.3     1  UNL1        0.0000
     66 H           5.3580   14.9741   -1.9870 H       1  UNL1        0.0000
     67 H           4.0849   16.1671   -1.7531 H       1  UNL1        0.0000
     68 H           3.7399   14.4568   -1.5022 H       1  UNL1        0.0000
     69 C           4.2940    9.9479    1.0542 C.3     1  UNL1        0.0000
     70 H           4.1239    9.0077    0.5292 H       1  UNL1        0.0000
     71 H           5.3133    9.9397    1.4330 H       1  UNL1        0.0000
     72 H           4.2011   10.7627    0.3401 H       1  UNL1        0.0000
     73 C           4.8918   15.3338    0.0934 C.3     1  UNL1        0.0000
     74 H           5.4450   16.2644    0.2572 H       1  UNL1        0.0000
     75 C           5.5974   10.8661    4.1904 C.3     1  UNL1        0.0000
     76 H           6.6519   11.0429    4.4042 H       1  UNL1        0.0000
     77 H           5.5165    9.8890    3.7222 H       1  UNL1        0.0000
     78 H           5.0648   10.8494    5.1384 H       1  UNL1        0.0000
     79 C          -0.5961   12.3286   -1.1284 C.3     1  UNL1        0.0000
     80 H          -0.8172   12.5163   -2.1795 H       1  UNL1        0.0000
     81 H          -1.2974   11.5798   -0.7683 H       1  UNL1        0.0000
     82 H           0.4074   11.9174   -1.0588 H       1  UNL1        0.0000
     83 C           4.9496   16.9945    2.9147 C.ar    1  UNL1        0.0000
     84 H           5.6071   17.2547    2.0974 H       1  UNL1        0.0000
     85 C           5.1850   17.5450    4.1644 C.ar    1  UNL1        0.0000
     86 H           6.0057   18.2363    4.2978 H       1  UNL1        0.0000
     87 C          -0.6448   11.7220    3.4362 C.3     1  UNL1        0.0000
     88 H          -0.9431   12.5635    4.0604 H       1  UNL1        0.0000
     89 H           0.4239   11.5726    3.5614 H       1  UNL1        0.0000
     90 H          -1.1648   10.8321    3.7906 H       1  UNL1        0.0000
     91 C           1.8767    9.7604    1.6812 C.3     1  UNL1        0.0000
     92 H           1.5449   10.5068    0.9575 H       1  UNL1        0.0000
     93 H           1.1705    9.7411    2.5079 H       1  UNL1        0.0000
     94 H           1.8750    8.7797    1.2053 H       1  UNL1        0.0000
@<TRIPOS>BOND
     1    80    79    1
     2    34    31    1
     3    66    65    1
     4    67    65    1
     5    68    65    1
     6    65    73    1
     7    79    82    1
     8    79    81    1
     9    79    45    1
    10    31    32    1
    11    31    33    1
    12    31    45    1
    13    60    59    1
    14    27    25    1
    15    45    46    1
    16    45     2    1
    17    38    35    1
    18    26    25    1
    19    73    74    1
    20    73    35    1
    21    73     4    1
    22    25    59    1
    23    25    28    1
    24    72    69    1
    25    59     4    1
    26    59    10    1
    27    36    35    1
    28    35    37    1
    29    70    69    1
    30    18    16    1
    31    13    10    1
    32    92    91    1
    33    69    71    1
    34    69     7    1
    35     4    15    1
    36    94    91    1
    37    10    12    1
    38    10    11    1
    39    64    63    1
    40     2    43    1
    41     2    51    1
    42    44    43    1
    43    91     7    1
    44    91    93    1
    45    16    43    1
    46    16    17    1
    47    16    19    1
    48    43    87    1
    49    84    83    1
    50     7     3    1
    51     7     8    1
    52    63    51   ar
    53    63    57   ar
    54    62    61    1
    55    51    24   ar
    56    15    83   ar
    57    15     9   ar
    58     3    61    1
    59     3    14    1
    60    83    85   ar
    61    58    57    1
    62    57    41   ar
    63    61    20    1
    64    61    75    1
    65    22    20    1
    66     1    24    1
    67     1     9    1
    68     1    52    1
    69    87    89    1
    70    87    90    1
    71    87    88    1
    72    24    29   ar
    73    77    75    1
    74     9    53   ar
    75    20    23    1
    76    20    21    1
    77    85    86    1
    78    85    55   ar
    79    75    76    1
    80    75    78    1
    81    41    29   ar
    82    41    42    1
    83    29    30    1
    84    14    52   ar
    85    14    39   ar
    86    52    47   ar
    87    40    39    1
    88    53    55   ar
    89    53    54    1
    90    55    56    1
    91    39    49   ar
    92    47    48    1
    93    47     5   ar
    94    49     5   ar
    95    49    50    1
    96     5     6    1
