@<TRIPOS>MOLECULE
1,2,3,4
 94 96 0 0 0
SMALL
GASTEIGER

@<TRIPOS>ATOM
      1 P           3.6077    3.1543   15.6296 P.3     1  UNL1        0.0000
      2 P           2.6316    3.5690   12.1963 P.3     1  UNL1        0.0000
      3 P           2.1650    0.0499   13.9665 P.3     1  UNL1        0.0000
      4 SI          1.0248    2.6738   14.3965 Si      1  UNL1        0.0000
      5 C           2.2493    4.1040   16.4298 C.ar    1  UNL1        0.0000
      6 C           3.3210    3.3747   10.4630 C.3     1  UNL1        0.0000
      7 H           2.9180    4.1738    9.8345 H       1  UNL1        0.0000
      8 C           2.3728    4.9443   17.5288 C.ar    1  UNL1        0.0000
      9 H           3.3192    5.0796   18.0282 H       1  UNL1        0.0000
     10 C          -0.0932    4.6260   16.3124 C.ar    1  UNL1        0.0000
     11 H          -1.0493    4.5190   15.8221 H       1  UNL1        0.0000
     12 C           0.9995    3.9259   15.8362 C.ar    1  UNL1        0.0000
     13 C           4.0843    2.1646   17.1434 C.3     1  UNL1        0.0000
     14 H           4.3813    2.8555   17.9399 H       1  UNL1        0.0000
     15 C           4.9765    4.4789   15.5723 C.3     1  UNL1        0.0000
     16 H           4.4041    5.3865   15.3338 H       1  UNL1        0.0000
     17 C          -0.0166    1.2227   15.0628 C.ar    1  UNL1        0.0000
     18 C           3.0501    5.4046   12.4247 C.3     1  UNL1        0.0000
     19 H           4.1078    5.4073   12.7170 H       1  UNL1        0.0000
     20 C           5.9311    4.2028   14.4128 C.3     1  UNL1        0.0000
     21 H           6.3832    5.1275   14.0553 H       1  UNL1        0.0000
     22 H           5.3953    3.7253   13.5908 H       1  UNL1        0.0000
     23 H           6.7349    3.5419   14.7298 H       1  UNL1        0.0000
     24 C           2.9401   -1.5551   14.5993 C.3     1  UNL1        0.0000
     25 H           2.2334   -2.3328   14.2950 H       1  UNL1        0.0000
     26 C          -1.2334    1.3131   15.7120 C.ar    1  UNL1        0.0000
     27 H          -1.6734    2.2822   15.8894 H       1  UNL1        0.0000
     28 C           0.5691   -0.0252   14.8631 C.ar    1  UNL1        0.0000
     29 C          -1.3334    3.6031   12.8707 C.ar    1  UNL1        0.0000
     30 H          -1.9552    3.3249   13.7083 H       1  UNL1        0.0000
     31 C          -0.0805   -1.1720   15.3084 C.ar    1  UNL1        0.0000
     32 H           0.3497   -2.1543   15.1814 H       1  UNL1        0.0000
     33 C           1.5796   -0.6214   12.2899 C.3     1  UNL1        0.0000
     34 H           2.4693   -0.5459   11.6483 H       1  UNL1        0.0000
     35 C           0.0365    3.4467   12.9555 C.ar    1  UNL1        0.0000
     36 C           0.2574    4.2566   10.6955 C.ar    1  UNL1        0.0000
     37 H           0.8498    4.4893    9.8221 H       1  UNL1        0.0000
     38 C           2.8759    2.0378    9.8889 C.3     1  UNL1        0.0000
     39 H           3.4209    1.8042    8.9741 H       1  UNL1        0.0000
     40 H           1.8118    2.0510    9.6622 H       1  UNL1        0.0000
     41 H           3.0551    1.2535   10.6218 H       1  UNL1        0.0000
     42 C          -1.3043   -1.0677   15.9471 C.ar    1  UNL1        0.0000
     43 H          -1.8051   -1.9622   16.2915 H       1  UNL1        0.0000
     44 C           5.8087    4.7613   16.8233 C.3     1  UNL1        0.0000
     45 H           6.4944    5.5796   16.5998 H       1  UNL1        0.0000
     46 H           6.4060    3.8997   17.1122 H       1  UNL1        0.0000
     47 H           5.2093    5.0653   17.6753 H       1  UNL1        0.0000
     48 C          -1.8823    0.1733   16.1534 C.ar    1  UNL1        0.0000
     49 H          -2.8333    0.2486   16.6619 H       1  UNL1        0.0000
     50 C           4.8404    3.4937   10.5047 C.3     1  UNL1        0.0000
     51 H           5.2754    3.1965    9.5504 H       1  UNL1        0.0000
     52 H           5.2377    2.8523   11.2865 H       1  UNL1        0.0000
     53 H           5.1525    4.5140   10.7173 H       1  UNL1        0.0000
     54 C           0.0354    5.4795   17.3944 C.ar    1  UNL1        0.0000
     55 H          -0.8203    6.0287   17.7615 H       1  UNL1        0.0000
     56 C           2.2307    5.9596   13.5818 C.3     1  UNL1        0.0000
     57 H           2.5629    6.9657   13.8392 H       1  UNL1        0.0000
     58 H           2.3327    5.3291   14.4602 H       1  UNL1        0.0000
     59 H           1.1744    6.0057   13.3207 H       1  UNL1        0.0000
     60 C           2.8469    1.3906   17.5796 C.3     1  UNL1        0.0000
     61 H           3.0973    0.6374   18.3256 H       1  UNL1        0.0000
     62 H           2.4022    0.8974   16.7122 H       1  UNL1        0.0000
     63 H           2.0989    2.0587   18.0029 H       1  UNL1        0.0000
     64 C           5.2377    1.2394   16.7878 C.3     1  UNL1        0.0000
     65 H           5.4252    0.5161   17.5816 H       1  UNL1        0.0000
     66 H           6.1548    1.8025   16.6215 H       1  UNL1        0.0000
     67 H           4.9858    0.7121   15.8662 H       1  UNL1        0.0000
     68 C           3.0937   -1.6593   16.1123 C.3     1  UNL1        0.0000
     69 H           3.3647   -2.6835   16.3732 H       1  UNL1        0.0000
     70 H           2.1658   -1.4144   16.6240 H       1  UNL1        0.0000
     71 H           3.8758   -1.0038   16.4763 H       1  UNL1        0.0000
     72 C           1.2670    5.6248   18.0094 C.ar    1  UNL1        0.0000
     73 H           1.3717    6.2783   18.8645 H       1  UNL1        0.0000
     74 C           0.8404    3.7839   11.8643 C.ar    1  UNL1        0.0000
     75 C          -1.9140    4.0922   11.7120 C.ar    1  UNL1        0.0000
     76 H          -2.9865    4.2124   11.6486 H       1  UNL1        0.0000
     77 C           1.0378   -2.0456   12.1927 C.3     1  UNL1        0.0000
     78 H           0.6420   -2.1933   11.1873 H       1  UNL1        0.0000
     79 H           0.2207   -2.2017   12.8931 H       1  UNL1        0.0000
     80 H           1.8041   -2.8007   12.3513 H       1  UNL1        0.0000
     81 C          -1.1180    4.4092   10.6251 C.ar    1  UNL1        0.0000
     82 H          -1.5691    4.7726    9.7119 H       1  UNL1        0.0000
     83 C           4.2732   -1.8315   13.9178 C.3     1  UNL1        0.0000
     84 H           4.6313   -2.8280   14.1792 H       1  UNL1        0.0000
     85 H           5.0159   -1.1084   14.2448 H       1  UNL1        0.0000
     86 H           4.1745   -1.7747   12.8356 H       1  UNL1        0.0000
     87 C           2.8675    6.3289   11.2219 C.3     1  UNL1        0.0000
     88 H           3.0658    7.3525   11.5414 H       1  UNL1        0.0000
     89 H           1.8438    6.2915   10.8568 H       1  UNL1        0.0000
     90 H           3.5493    6.1068   10.4055 H       1  UNL1        0.0000
     91 C           0.5241    0.3420   11.7637 C.3     1  UNL1        0.0000
     92 H           0.2646    0.1068   10.7319 H       1  UNL1        0.0000
     93 H           0.8960    1.3635   11.8027 H       1  UNL1        0.0000
     94 H          -0.3806    0.2864   12.3673 H       1  UNL1        0.0000
@<TRIPOS>BOND
     1    39    38    1
     2    51    50    1
     3    40    38    1
     4    82    81    1
     5    37    36    1
     6     7     6    1
     7    38     6    1
     8    38    41    1
     9    90    87    1
    10     6    50    1
    11     6     2    1
    12    50    53    1
    13    50    52    1
    14    81    36   ar
    15    81    75   ar
    16    36    74   ar
    17    92    91    1
    18    89    87    1
    19    78    77    1
    20    87    88    1
    21    87    18    1
    22    34    33    1
    23    76    75    1
    24    75    29   ar
    25    91    93    1
    26    91    33    1
    27    91    94    1
    28    74     2    1
    29    74    35   ar
    30    77    33    1
    31    77    80    1
    32    77    79    1
    33     2    18    1
    34    33     3    1
    35    18    19    1
    36    18    56    1
    37    86    83    1
    38    29    35   ar
    39    29    30    1
    40    35     4    1
    41    59    56    1
    42    56    57    1
    43    56    58    1
    44    22    20    1
    45    83    84    1
    46    83    85    1
    47    83    24    1
    48     3    24    1
    49     3    28    1
    50    21    20    1
    51    25    24    1
    52     4    17    1
    53     4    12    1
    54    20    23    1
    55    20    15    1
    56    24    68    1
    57    28    17   ar
    58    28    31   ar
    59    17    26   ar
    60    32    31    1
    61    31    42   ar
    62    16    15    1
    63    15     1    1
    64    15    44    1
    65     1     5    1
    66     1    13    1
    67    26    27    1
    68    26    48   ar
    69    11    10    1
    70    12    10   ar
    71    12     5   ar
    72    67    64    1
    73    42    48   ar
    74    42    43    1
    75    68    69    1
    76    68    71    1
    77    68    70    1
    78    48    49    1
    79    10    54   ar
    80     5     8   ar
    81    45    44    1
    82    66    64    1
    83    62    60    1
    84    64    13    1
    85    64    65    1
    86    44    46    1
    87    44    47    1
    88    13    60    1
    89    13    14    1
    90    54    55    1
    91    54    72   ar
    92     8    72   ar
    93     8     9    1
    94    60    63    1
    95    60    61    1
    96    72    73    1
