@<TRIPOS>MOLECULE
1,2,3,4
 94 96 0 0 0
SMALL
GASTEIGER

@<TRIPOS>ATOM
      1 P          15.6643    3.3068   18.7610 P.3     1  UNL1        0.0000
      2 P          16.9330    4.8953   15.8807 P.3     1  UNL1        0.0000
      3 P          14.4088    1.5175   15.7732 P.3     1  UNL1        0.0000
      4 SI         14.1609    4.3482   16.4111 Si      1  UNL1        0.0000
      5 C          13.9696    5.3203   18.0450 C.ar    1  UNL1        0.0000
      6 C          14.7871    4.8904   19.0958 C.ar    1  UNL1        0.0000
      7 C          14.8201    5.6255   20.2761 C.ar    1  UNL1        0.0000
      8 H          15.4679    5.3490   21.0952 H       1  UNL1        0.0000
      9 C          14.0388    6.7615   20.4146 C.ar    1  UNL1        0.0000
     10 H          14.0771    7.3263   21.3356 H       1  UNL1        0.0000
     11 C          13.2178    7.1758   19.3807 C.ar    1  UNL1        0.0000
     12 H          12.6104    8.0625   19.4938 H       1  UNL1        0.0000
     13 C          13.1967    6.4580   18.1972 C.ar    1  UNL1        0.0000
     14 H          12.5838    6.7953   17.3743 H       1  UNL1        0.0000
     15 C          15.7991    5.7802   14.7260 C.ar    1  UNL1        0.0000
     16 C          14.4481    5.6593   15.0603 C.ar    1  UNL1        0.0000
     17 C          13.4945    6.3276   14.3166 C.ar    1  UNL1        0.0000
     18 H          12.4504    6.2206   14.5709 H       1  UNL1        0.0000
     19 C          13.8666    7.1105   13.2364 C.ar    1  UNL1        0.0000
     20 H          13.1181    7.6323   12.6568 H       1  UNL1        0.0000
     21 C          15.2013    7.1985   12.8814 C.ar    1  UNL1        0.0000
     22 H          15.4946    7.7793   12.0179 H       1  UNL1        0.0000
     23 C          16.1688    6.5382   13.6224 C.ar    1  UNL1        0.0000
     24 H          17.1984    6.6037   13.3021 H       1  UNL1        0.0000
     25 C          12.6594    2.0683   15.8730 C.ar    1  UNL1        0.0000
     26 C          12.5182    3.4424   16.0830 C.ar    1  UNL1        0.0000
     27 C          11.2559    4.0009   16.1209 C.ar    1  UNL1        0.0000
     28 H          11.1481    5.0597   16.3023 H       1  UNL1        0.0000
     29 C          10.1293    3.2136   15.9487 C.ar    1  UNL1        0.0000
     30 H           9.1438    3.6565   15.9786 H       1  UNL1        0.0000
     31 C          10.2697    1.8507   15.7565 C.ar    1  UNL1        0.0000
     32 H           9.3945    1.2273   15.6372 H       1  UNL1        0.0000
     33 C          11.5296    1.2748   15.7211 C.ar    1  UNL1        0.0000
     34 H          11.6029    0.2046   15.5925 H       1  UNL1        0.0000
     35 C          14.5142    2.2034   19.7749 C.3     1  UNL1        0.0000
     36 H          14.8996    1.1883   19.6200 H       1  UNL1        0.0000
     37 C          13.1143    2.2851   19.1842 C.3     1  UNL1        0.0000
     38 H          12.4587    1.5461   19.6438 H       1  UNL1        0.0000
     39 H          13.1503    2.1040   18.1140 H       1  UNL1        0.0000
     40 H          12.6834    3.2713   19.3473 H       1  UNL1        0.0000
     41 C          14.4299    2.4732   21.2757 C.3     1  UNL1        0.0000
     42 H          14.0938    3.4899   21.4650 H       1  UNL1        0.0000
     43 H          15.3712    2.3049   21.7902 H       1  UNL1        0.0000
     44 H          13.6932    1.7954   21.7076 H       1  UNL1        0.0000
     45 C          17.0963    3.3881   19.9764 C.3     1  UNL1        0.0000
     46 H          16.6828    3.7970   20.9042 H       1  UNL1        0.0000
     47 C          17.7310    2.0379   20.3048 C.3     1  UNL1        0.0000
     48 H          18.3622    1.6986   19.4915 H       1  UNL1        0.0000
     49 H          16.9855    1.2713   20.4984 H       1  UNL1        0.0000
     50 H          18.3545    2.1379   21.1941 H       1  UNL1        0.0000
     51 C          18.1459    4.3519   19.4459 C.3     1  UNL1        0.0000
     52 H          19.0388    4.3338   20.0701 H       1  UNL1        0.0000
     53 H          17.7548    5.3668   19.4302 H       1  UNL1        0.0000
     54 H          18.4193    4.0640   18.4316 H       1  UNL1        0.0000
     55 C          17.7272    6.4215   16.6659 C.3     1  UNL1        0.0000
     56 H          18.4516    6.0212   17.3836 H       1  UNL1        0.0000
     57 C          16.6610    7.2005   17.4279 C.3     1  UNL1        0.0000
     58 H          17.1082    8.0473   17.9478 H       1  UNL1        0.0000
     59 H          16.1676    6.5679   18.1585 H       1  UNL1        0.0000
     60 H          15.9026    7.5805   16.7445 H       1  UNL1        0.0000
     61 C          18.4668    7.3804   15.7355 C.3     1  UNL1        0.0000
     62 H          17.7771    7.8638   15.0487 H       1  UNL1        0.0000
     63 H          19.2564    6.8932   15.1702 H       1  UNL1        0.0000
     64 H          18.9295    8.1595   16.3416 H       1  UNL1        0.0000
     65 C          18.3058    4.3652   14.7184 C.3     1  UNL1        0.0000
     66 H          18.5701    5.1905   14.0489 H       1  UNL1        0.0000
     67 C          19.5474    3.9313   15.4885 C.3     1  UNL1        0.0000
     68 H          19.3073    3.1017   16.1471 H       1  UNL1        0.0000
     69 H          19.9509    4.7454   16.0869 H       1  UNL1        0.0000
     70 H          20.3220    3.6033   14.7951 H       1  UNL1        0.0000
     71 C          17.7427    3.2123   13.8932 C.3     1  UNL1        0.0000
     72 H          18.5391    2.6530   13.4022 H       1  UNL1        0.0000
     73 H          17.0608    3.5803   13.1291 H       1  UNL1        0.0000
     74 H          17.1963    2.5313   14.5590 H       1  UNL1        0.0000
     75 C          14.2599   -0.3401   16.0701 C.3     1  UNL1        0.0000
     76 H          13.4290   -0.6880   15.4474 H       1  UNL1        0.0000
     77 C          13.9259   -0.6458   17.5239 C.3     1  UNL1        0.0000
     78 H          13.8409   -1.7229   17.6686 H       1  UNL1        0.0000
     79 H          12.9859   -0.1854   17.8184 H       1  UNL1        0.0000
     80 H          14.7155   -0.2766   18.1734 H       1  UNL1        0.0000
     81 C          15.5181   -1.1026   15.6601 C.3     1  UNL1        0.0000
     82 H          16.3295   -0.9008   16.3525 H       1  UNL1        0.0000
     83 H          15.8477   -0.8400   14.6571 H       1  UNL1        0.0000
     84 H          15.3186   -2.1745   15.6799 H       1  UNL1        0.0000
     85 C          14.5404    1.4711   13.8792 C.3     1  UNL1        0.0000
     86 H          15.5813    1.1917   13.6655 H       1  UNL1        0.0000
     87 C          14.2912    2.8660   13.3182 C.3     1  UNL1        0.0000
     88 H          14.4752    2.8798   12.2439 H       1  UNL1        0.0000
     89 H          14.9383    3.6014   13.7871 H       1  UNL1        0.0000
     90 H          13.2603    3.1705   13.4893 H       1  UNL1        0.0000
     91 C          13.6154    0.4883   13.1638 C.3     1  UNL1        0.0000
     92 H          12.5775    0.6665   13.4371 H       1  UNL1        0.0000
     93 H          13.8674   -0.5493   13.3642 H       1  UNL1        0.0000
     94 H          13.7062    0.6443   12.0886 H       1  UNL1        0.0000
@<TRIPOS>BOND
     1    22    21    1
     2    94    91    1
     3    88    87    1
     4    20    19    1
     5    21    19   ar
     6    21    23   ar
     7    73    71    1
     8    91    93    1
     9    91    92    1
    10    91    85    1
    11    19    17   ar
    12    24    23    1
    13    87    90    1
    14    87    89    1
    15    87    85    1
    16    72    71    1
    17    23    15   ar
    18    86    85    1
    19    85     3    1
    20    71    74    1
    21    71    65    1
    22    66    65    1
    23    17    18    1
    24    17    16   ar
    25    83    81    1
    26    65    67    1
    27    65     2    1
    28    15    16   ar
    29    15     2    1
    30    70    67    1
    31    62    61    1
    32    16     4    1
    33    63    61    1
    34    76    75    1
    35    67    69    1
    36    67    68    1
    37    34    33    1
    38    32    31    1
    39    81    84    1
    40    81    75    1
    41    81    82    1
    42    33    31   ar
    43    33    25   ar
    44    61    64    1
    45    61    55    1
    46    31    29   ar
    47     3    25    1
    48     3    75    1
    49    25    26   ar
    50     2    55    1
    51    29    30    1
    52    29    27   ar
    53    75    77    1
    54    26    27   ar
    55    26     4    1
    56    27    28    1
    57     4     5    1
    58    55    56    1
    59    55    57    1
    60    60    57    1
    61    14    13    1
    62    57    58    1
    63    57    59    1
    64    77    78    1
    65    77    79    1
    66    77    80    1
    67     5    13   ar
    68     5     6   ar
    69    39    37    1
    70    13    11   ar
    71    54    51    1
    72     1     6    1
    73     1    35    1
    74     1    45    1
    75     6     7   ar
    76    37    40    1
    77    37    38    1
    78    37    35    1
    79    11    12    1
    80    11     9   ar
    81    53    51    1
    82    51    45    1
    83    51    52    1
    84    48    47    1
    85    36    35    1
    86    35    41    1
    87    45    47    1
    88    45    46    1
    89     7     9   ar
    90     7     8    1
    91    47    49    1
    92    47    50    1
    93     9    10    1
    94    41    42    1
    95    41    44    1
    96    41    43    1
