@<TRIPOS>MOLECULE
1,2,3,4
 100 108 0 0 0
SMALL
GASTEIGER

@<TRIPOS>ATOM
      1 P           1.9530   12.8837    2.3674 P.3     1  UNL1        0.0000
      2 P           2.8492   15.4057    0.3837 P.3     1  UNL1        0.0000
      3 P          -1.0056   13.7718    1.0737 P.3     1  UNL1        0.0000
      4 SI          0.7689   15.6388    2.3442 Si      1  UNL1        0.0000
      5 C           2.1324   13.7913    3.9299 C.ar    1  UNL1        0.0000
      6 C           1.6944   15.1140    3.9309 C.ar    1  UNL1        0.0000
      7 C           1.8342   15.8657    5.0877 C.ar    1  UNL1        0.0000
      8 H           1.5190   16.8981    5.0915 H       1  UNL1        0.0000
      9 C           2.3766   15.2994    6.2282 C.ar    1  UNL1        0.0000
     10 H           2.4935   15.8928    7.1225 H       1  UNL1        0.0000
     11 C           2.7416   13.9605    6.2377 C.ar    1  UNL1        0.0000
     12 H           3.1232   13.5114    7.1423 H       1  UNL1        0.0000
     13 C           2.6175   13.1971    5.0911 C.ar    1  UNL1        0.0000
     14 H           2.8808   12.1479    5.0979 H       1  UNL1        0.0000
     15 C           2.5168   17.1306    0.8742 C.ar    1  UNL1        0.0000
     16 C           1.4833   17.3057    1.7931 C.ar    1  UNL1        0.0000
     17 C           1.1586   18.5839    2.2094 C.ar    1  UNL1        0.0000
     18 H           0.3527   18.7291    2.9127 H       1  UNL1        0.0000
     19 C           1.8578   19.6737    1.7170 C.ar    1  UNL1        0.0000
     20 H           1.5985   20.6711    2.0390 H       1  UNL1        0.0000
     21 C           2.8918   19.4895    0.8112 C.ar    1  UNL1        0.0000
     22 H           3.4353   20.3422    0.4332 H       1  UNL1        0.0000
     23 C           3.2275   18.2168    0.3822 C.ar    1  UNL1        0.0000
     24 H           4.0279   18.0738   -0.3300 H       1  UNL1        0.0000
     25 C          -1.8436   14.6898    2.3954 C.ar    1  UNL1        0.0000
     26 C          -1.0388   15.6877    2.9531 C.ar    1  UNL1        0.0000
     27 C          -1.5647   16.4887    3.9493 C.ar    1  UNL1        0.0000
     28 H          -0.9539   17.2601    4.3916 H       1  UNL1        0.0000
     29 C          -2.8615   16.2904    4.3960 C.ar    1  UNL1        0.0000
     30 H          -3.2647   16.9190    5.1755 H       1  UNL1        0.0000
     31 C          -3.6339   15.2691    3.8662 C.ar    1  UNL1        0.0000
     32 H          -4.6333   15.0998    4.2373 H       1  UNL1        0.0000
     33 C          -3.1282   14.4567    2.8645 C.ar    1  UNL1        0.0000
     34 H          -3.7240   13.6461    2.4708 H       1  UNL1        0.0000
     35 C           0.8757   11.5302    2.9521 C.ar    1  UNL1        0.0000
     36 C          -0.3158   11.9363    3.5560 C.ar    1  UNL1        0.0000
     37 H          -0.5034   12.9941    3.7020 H       1  UNL1        0.0000
     38 C          -1.2280   11.0015    4.0034 C.ar    1  UNL1        0.0000
     39 H          -2.1455   11.3266    4.4705 H       1  UNL1        0.0000
     40 C          -0.9585    9.6491    3.8559 C.ar    1  UNL1        0.0000
     41 H          -1.6719    8.9160    4.1994 H       1  UNL1        0.0000
     42 C           0.2330    9.2406    3.2816 C.ar    1  UNL1        0.0000
     43 H           0.4525    8.1881    3.1832 H       1  UNL1        0.0000
     44 C           1.1527   10.1731    2.8292 C.ar    1  UNL1        0.0000
     45 H           2.0808    9.8407    2.3878 H       1  UNL1        0.0000
     46 C           3.5495   12.0452    2.1186 C.ar    1  UNL1        0.0000
     47 C           4.6550   12.2483    2.9386 C.ar    1  UNL1        0.0000
     48 H           4.6199   12.9768    3.7343 H       1  UNL1        0.0000
     49 C           5.8147   11.5239    2.7266 C.ar    1  UNL1        0.0000
     50 H           6.6617   11.6761    3.3783 H       1  UNL1        0.0000
     51 C           5.8934   10.6128    1.6870 C.ar    1  UNL1        0.0000
     52 H           6.8000   10.0490    1.5288 H       1  UNL1        0.0000
     53 C           4.8084   10.4325    0.8439 C.ar    1  UNL1        0.0000
     54 H           4.8686    9.7342    0.0226 H       1  UNL1        0.0000
     55 C           3.6423   11.1426    1.0574 C.ar    1  UNL1        0.0000
     56 H           2.7969   10.9973    0.3992 H       1  UNL1        0.0000
     57 C           4.4736   15.0894    1.1160 C.ar    1  UNL1        0.0000
     58 C           4.8602   15.7207    2.2940 C.ar    1  UNL1        0.0000
     59 H           4.1805   16.4023    2.7882 H       1  UNL1        0.0000
     60 C           6.1193   15.4838    2.8160 C.ar    1  UNL1        0.0000
     61 H           6.4241   15.9803    3.7250 H       1  UNL1        0.0000
     62 C           6.9917   14.6253    2.1669 C.ar    1  UNL1        0.0000
     63 H           7.9816   14.4620    2.5649 H       1  UNL1        0.0000
     64 C           6.5963   13.9722    1.0093 C.ar    1  UNL1        0.0000
     65 H           7.2734   13.2957    0.5101 H       1  UNL1        0.0000
     66 C           5.3348   14.1895    0.4900 C.ar    1  UNL1        0.0000
     67 H           5.0112   13.6737   -0.4052 H       1  UNL1        0.0000
     68 C           3.2157   15.6334   -1.3860 C.ar    1  UNL1        0.0000
     69 C           4.4568   15.9917   -1.9053 C.ar    1  UNL1        0.0000
     70 H           5.3177   16.0755   -1.2569 H       1  UNL1        0.0000
     71 C           4.5863   16.2299   -3.2619 C.ar    1  UNL1        0.0000
     72 H           5.5499   16.5034   -3.6648 H       1  UNL1        0.0000
     73 C           3.4902   16.1216   -4.1032 C.ar    1  UNL1        0.0000
     74 H           3.6030   16.3063   -5.1604 H       1  UNL1        0.0000
     75 C           2.2506   15.7781   -3.5884 C.ar    1  UNL1        0.0000
     76 H           1.3929   15.6960   -4.2388 H       1  UNL1        0.0000
     77 C           2.1166   15.5392   -2.2346 C.ar    1  UNL1        0.0000
     78 H           1.1506   15.2735   -1.8143 H       1  UNL1        0.0000
     79 C          -1.1854   14.8656   -0.3902 C.ar    1  UNL1        0.0000
     80 C          -1.2582   14.2643   -1.6532 C.ar    1  UNL1        0.0000
     81 H          -1.2439   13.1848   -1.7351 H       1  UNL1        0.0000
     82 C          -1.3683   15.0431   -2.7892 C.ar    1  UNL1        0.0000
     83 H          -1.4409   14.5688   -3.7562 H       1  UNL1        0.0000
     84 C          -1.3786   16.4271   -2.6860 C.ar    1  UNL1        0.0000
     85 H          -1.4616   17.0340   -3.5744 H       1  UNL1        0.0000
     86 C          -1.2885   17.0305   -1.4421 C.ar    1  UNL1        0.0000
     87 H          -1.2980   18.1067   -1.3593 H       1  UNL1        0.0000
     88 C          -1.1940   16.2593   -0.2962 C.ar    1  UNL1        0.0000
     89 H          -1.1749   16.7419    0.6712 H       1  UNL1        0.0000
     90 C          -2.0788   12.3884    0.6019 C.ar    1  UNL1        0.0000
     91 C          -3.3896   12.6357    0.1920 C.ar    1  UNL1        0.0000
     92 H          -3.7555   13.6535    0.1412 H       1  UNL1        0.0000
     93 C          -4.2010   11.5794   -0.1748 C.ar    1  UNL1        0.0000
     94 H          -5.2164   11.7673   -0.4897 H       1  UNL1        0.0000
     95 C          -3.7107   10.2819   -0.1471 C.ar    1  UNL1        0.0000
     96 H          -4.3507    9.4610   -0.4321 H       1  UNL1        0.0000
     97 C          -2.3992   10.0395    0.2262 C.ar    1  UNL1        0.0000
     98 H          -2.0113    9.0323    0.2250 H       1  UNL1        0.0000
     99 C          -1.5799   11.0911    0.5965 C.ar    1  UNL1        0.0000
    100 H          -0.5492   10.9153    0.8715 H       1  UNL1        0.0000
@<TRIPOS>BOND
     1    74    73    1
     2    76    75    1
     3    73    75   ar
     4    73    71   ar
     5    83    82    1
     6    72    71    1
     7    75    77   ar
     8    85    84    1
     9    71    69   ar
    10    82    84   ar
    11    82    80   ar
    12    84    86   ar
    13    77    78    1
    14    77    68   ar
    15    69    68   ar
    16    69    70    1
    17    81    80    1
    18    80    79   ar
    19    86    87    1
    20    86    88   ar
    21    68     2    1
    22    94    93    1
    23    96    95    1
    24    67    66    1
    25    79    88   ar
    26    79     3    1
    27    24    23    1
    28    88    89    1
    29    93    95   ar
    30    93    91   ar
    31    95    97   ar
    32    54    53    1
    33    92    91    1
    34    91    90   ar
    35    98    97    1
    36    97    99   ar
    37    23    21   ar
    38    23    15   ar
    39     2    15    1
    40     2    57    1
    41    56    55    1
    42    22    21    1
    43    66    64   ar
    44    66    57   ar
    45    65    64    1
    46    99    90   ar
    47    99   100    1
    48    90     3    1
    49    21    19   ar
    50    53    55   ar
    51    53    51   ar
    52    15    16   ar
    53    64    62   ar
    54    55    46   ar
    55     3    25    1
    56    57    58   ar
    57    52    51    1
    58    51    49   ar
    59    19    20    1
    60    19    17   ar
    61    16    17   ar
    62    16     4    1
    63    46     1    1
    64    46    47   ar
    65    62    63    1
    66    62    60   ar
    67    17    18    1
    68    58    59    1
    69    58    60   ar
    70     4    26    1
    71     4     6    1
    72     1    35    1
    73     1     5    1
    74    45    44    1
    75    25    33   ar
    76    25    26   ar
    77    34    33    1
    78    49    47   ar
    79    49    50    1
    80    60    61    1
    81    44    35   ar
    82    44    42   ar
    83    33    31   ar
    84    47    48    1
    85    35    36   ar
    86    26    27   ar
    87    43    42    1
    88    42    40   ar
    89    36    37    1
    90    36    38   ar
    91    40    38   ar
    92    40    41    1
    93    31    32    1
    94    31    29   ar
    95     5     6   ar
    96     5    13   ar
    97     6     7   ar
    98    27    28    1
    99    27    29   ar
   100    38    39    1
   101    29    30    1
   102     7     8    1
   103     7     9   ar
   104    13    14    1
   105    13    11   ar
   106     9    11   ar
   107     9    10    1
   108    11    12    1
