@<TRIPOS>MOLECULE
1,2,3,4
 94 96 0 0 0
SMALL
GASTEIGER

@<TRIPOS>ATOM
      1 P           3.0892    7.2924    5.8450 P.3     1  UNL1        0.0000
      2 P           2.5703    5.8722    2.4612 P.3     1  UNL1        0.0000
      3 P           2.8715   10.1221    3.5913 P.3     1  UNL1        0.0000
      4 SI          0.8814    7.8614    4.0065 Si      1  UNL1        0.0000
      5 C           1.5153    6.4972    6.3495 C.ar    1  UNL1        0.0000
      6 C           0.4205    6.8720    5.5647 C.ar    1  UNL1        0.0000
      7 C           0.8960    6.1688    1.7564 C.ar    1  UNL1        0.0000
      8 C          -0.8460    6.4223    5.8910 C.ar    1  UNL1        0.0000
      9 H          -1.6866    6.7007    5.2733 H       1  UNL1        0.0000
     10 C          -1.0387    5.6021    6.9905 C.ar    1  UNL1        0.0000
     11 H          -2.0291    5.2537    7.2432 H       1  UNL1        0.0000
     12 C           0.0481    5.2113    7.7532 C.ar    1  UNL1        0.0000
     13 H          -0.0936    4.5538    8.5985 H       1  UNL1        0.0000
     14 C           1.3228    5.6557    7.4384 C.ar    1  UNL1        0.0000
     15 H           2.1520    5.3124    8.0387 H       1  UNL1        0.0000
     16 C           0.0654    7.0010    2.5134 C.ar    1  UNL1        0.0000
     17 C          -1.2329    7.2307    2.0940 C.ar    1  UNL1        0.0000
     18 H          -1.8680    7.8849    2.6709 H       1  UNL1        0.0000
     19 C          -1.7201    6.6481    0.9367 C.ar    1  UNL1        0.0000
     20 H          -2.7365    6.8304    0.6204 H       1  UNL1        0.0000
     21 C          -0.8889    5.8471    0.1741 C.ar    1  UNL1        0.0000
     22 H          -1.2513    5.4073   -0.7435 H       1  UNL1        0.0000
     23 C           0.4143    5.6092    0.5787 C.ar    1  UNL1        0.0000
     24 H           1.0416    5.0007   -0.0548 H       1  UNL1        0.0000
     25 C           1.1685   10.6705    4.0367 C.ar    1  UNL1        0.0000
     26 C           0.2266    9.6438    4.1669 C.ar    1  UNL1        0.0000
     27 C          -1.0855    9.9548    4.4772 C.ar    1  UNL1        0.0000
     28 H          -1.8030    9.1592    4.6084 H       1  UNL1        0.0000
     29 C          -1.4837   11.2699    4.6454 C.ar    1  UNL1        0.0000
     30 H          -2.5102   11.5022    4.8879 H       1  UNL1        0.0000
     31 C          -0.5532   12.2851    4.5150 C.ar    1  UNL1        0.0000
     32 H          -0.8508   13.3143    4.6516 H       1  UNL1        0.0000
     33 C           0.7667   11.9885    4.2172 C.ar    1  UNL1        0.0000
     34 H           1.4682   12.8049    4.1402 H       1  UNL1        0.0000
     35 C           4.3903    6.1309    6.5445 C.3     1  UNL1        0.0000
     36 H           4.0608    5.8600    7.5519 H       1  UNL1        0.0000
     37 C           4.4690    4.8596    5.7118 C.3     1  UNL1        0.0000
     38 H           4.6756    5.1001    4.6697 H       1  UNL1        0.0000
     39 H           3.5317    4.3107    5.7659 H       1  UNL1        0.0000
     40 H           5.2658    4.2134    6.0768 H       1  UNL1        0.0000
     41 C           5.7595    6.7944    6.6472 C.3     1  UNL1        0.0000
     42 H           6.4528    6.1276    7.1591 H       1  UNL1        0.0000
     43 H           5.7272    7.7294    7.1991 H       1  UNL1        0.0000
     44 H           6.1655    7.0001    5.6648 H       1  UNL1        0.0000
     45 C           3.1249    8.6132    7.1941 C.3     1  UNL1        0.0000
     46 H           3.9963    9.2322    6.9558 H       1  UNL1        0.0000
     47 C           3.2537    8.1118    8.6320 C.3     1  UNL1        0.0000
     48 H           3.2192    8.9728    9.2983 H       1  UNL1        0.0000
     49 H           4.1880    7.5938    8.8228 H       1  UNL1        0.0000
     50 H           2.4211    7.4623    8.8914 H       1  UNL1        0.0000
     51 C           1.8739    9.4769    7.1007 C.3     1  UNL1        0.0000
     52 H           0.9842    8.8974    7.3400 H       1  UNL1        0.0000
     53 H           1.7580    9.8826    6.1015 H       1  UNL1        0.0000
     54 H           1.9359   10.3041    7.8061 H       1  UNL1        0.0000
     55 C           2.3328    4.0787    3.0224 C.3     1  UNL1        0.0000
     56 H           3.2629    3.8111    3.5342 H       1  UNL1        0.0000
     57 C           2.0771    3.0284    1.9433 C.3     1  UNL1        0.0000
     58 H           1.8959    2.0745    2.4372 H       1  UNL1        0.0000
     59 H           2.9264    2.8899    1.2806 H       1  UNL1        0.0000
     60 H           1.1907    3.2671    1.3610 H       1  UNL1        0.0000
     61 C           1.1936    4.0315    4.0339 C.3     1  UNL1        0.0000
     62 H           0.2458    4.2781    3.5586 H       1  UNL1        0.0000
     63 H           1.3622    4.7373    4.8397 H       1  UNL1        0.0000
     64 H           1.1098    3.0336    4.4610 H       1  UNL1        0.0000
     65 C           3.5833    5.5321    0.8981 C.3     1  UNL1        0.0000
     66 H           3.0173    4.7610    0.3679 H       1  UNL1        0.0000
     67 C           4.9693    4.9616    1.2009 C.3     1  UNL1        0.0000
     68 H           5.3364    4.4167    0.3322 H       1  UNL1        0.0000
     69 H           4.9554    4.2724    2.0421 H       1  UNL1        0.0000
     70 H           5.6924    5.7431    1.4134 H       1  UNL1        0.0000
     71 C           3.6906    6.7290   -0.0410 C.3     1  UNL1        0.0000
     72 H           4.1475    7.5935    0.4368 H       1  UNL1        0.0000
     73 H           2.7109    7.0197   -0.4145 H       1  UNL1        0.0000
     74 H           4.3063    6.4597   -0.8985 H       1  UNL1        0.0000
     75 C           2.7756   10.3966    1.7356 C.3     1  UNL1        0.0000
     76 H           3.7982   10.2504    1.3728 H       1  UNL1        0.0000
     77 C           1.8929    9.3005    1.1580 C.3     1  UNL1        0.0000
     78 H           0.8576    9.4252    1.4716 H       1  UNL1        0.0000
     79 H           2.2447    8.3235    1.5080 H       1  UNL1        0.0000
     80 H           1.9204    9.3136    0.0694 H       1  UNL1        0.0000
     81 C           2.2689   11.7617    1.2828 C.3     1  UNL1        0.0000
     82 H           2.2516   11.7897    0.1940 H       1  UNL1        0.0000
     83 H           2.9053   12.5732    1.6228 H       1  UNL1        0.0000
     84 H           1.2559   11.9375    1.6400 H       1  UNL1        0.0000
     85 C           3.9472   11.5945    4.0418 C.3     1  UNL1        0.0000
     86 H           3.3603   12.4921    3.8208 H       1  UNL1        0.0000
     87 C           4.2846   11.5997    5.5273 C.3     1  UNL1        0.0000
     88 H           4.9062   10.7440    5.7751 H       1  UNL1        0.0000
     89 H           3.3839   11.5773    6.1363 H       1  UNL1        0.0000
     90 H           4.8412   12.5008    5.7800 H       1  UNL1        0.0000
     91 C           5.2257   11.6295    3.2090 C.3     1  UNL1        0.0000
     92 H           5.9100   12.3640    3.6310 H       1  UNL1        0.0000
     93 H           5.0351   11.9159    2.1791 H       1  UNL1        0.0000
     94 H           5.7140   10.6578    3.2172 H       1  UNL1        0.0000
@<TRIPOS>BOND
     1    74    71    1
     2    22    21    1
     3    73    71    1
     4    24    23    1
     5    71    72    1
     6    71    65    1
     7    80    77    1
     8    21    23   ar
     9    21    19   ar
    10    82    81    1
    11    68    67    1
    12    66    65    1
    13    23     7   ar
    14    20    19    1
    15    65    67    1
    16    65     2    1
    17    19    17   ar
    18    77    78    1
    19    77    79    1
    20    77    75    1
    21    67    70    1
    22    67    69    1
    23    59    57    1
    24    81    83    1
    25    81    84    1
    26    81    75    1
    27    60    57    1
    28    76    75    1
    29    75     3    1
    30     7     2    1
    31     7    16   ar
    32    57    58    1
    33    57    55    1
    34    17    16   ar
    35    17    18    1
    36    93    91    1
    37     2    55    1
    38    16     4    1
    39    55    56    1
    40    55    61    1
    41    91    94    1
    42    91    92    1
    43    91    85    1
    44    62    61    1
    45     3    25    1
    46     3    85    1
    47    86    85    1
    48     4    26    1
    49     4     6    1
    50    61    64    1
    51    61    63    1
    52    25    26   ar
    53    25    33   ar
    54    85    87    1
    55    34    33    1
    56    26    27   ar
    57    33    31   ar
    58    27    28    1
    59    27    29   ar
    60    31    29   ar
    61    31    32    1
    62    29    30    1
    63    38    37    1
    64     9     8    1
    65    87    88    1
    66    87    90    1
    67    87    89    1
    68     6     8   ar
    69     6     5   ar
    70    44    41    1
    71    37    39    1
    72    37    40    1
    73    37    35    1
    74     1     5    1
    75     1    35    1
    76     1    45    1
    77     8    10   ar
    78    53    51    1
    79     5    14   ar
    80    35    41    1
    81    35    36    1
    82    41    42    1
    83    41    43    1
    84    46    45    1
    85    10    11    1
    86    10    12   ar
    87    51    45    1
    88    51    52    1
    89    51    54    1
    90    45    47    1
    91    14    12   ar
    92    14    15    1
    93    12    13    1
    94    47    49    1
    95    47    50    1
    96    47    48    1
