@<TRIPOS>MOLECULE
1,2,3,4
 100 108 0 0 0
SMALL
GASTEIGER

@<TRIPOS>ATOM
      1 P          -1.7874    2.1623    5.9858 P.3     1  UNL1        0.0000
      2 P          -4.0004    4.7750    6.4900 P.3     1  UNL1        0.0000
      3 P          -1.8177    6.1883    4.5527 P.3     1  UNL1        0.0000
      4 SI         -3.0247    3.7182    3.8538 Si      1  UNL1        0.0000
      5 C          -3.2900    1.8425    3.7382 C.ar    1  UNL1        0.0000
      6 C          -2.8116    1.1500    4.8517 C.ar    1  UNL1        0.0000
      7 C          -3.0693   -0.2050    4.9976 C.ar    1  UNL1        0.0000
      8 H          -2.7283   -0.7410    5.8714 H       1  UNL1        0.0000
      9 C          -3.7873   -0.8725    4.0189 C.ar    1  UNL1        0.0000
     10 H          -3.9915   -1.9273    4.1319 H       1  UNL1        0.0000
     11 C          -4.2417   -0.1954    2.8992 C.ar    1  UNL1        0.0000
     12 H          -4.7976   -0.7236    2.1385 H       1  UNL1        0.0000
     13 C          -3.9984    1.1617    2.7664 C.ar    1  UNL1        0.0000
     14 H          -4.3713    1.6976    1.9071 H       1  UNL1        0.0000
     15 C          -4.8149    4.4155    3.9170 C.ar    1  UNL1        0.0000
     16 C          -5.2237    4.9095    5.1516 C.ar    1  UNL1        0.0000
     17 C          -6.5234    5.3655    5.3481 C.ar    1  UNL1        0.0000
     18 H          -6.8444    5.6901    6.3291 H       1  UNL1        0.0000
     19 C          -7.3998    5.3937    4.2795 C.ar    1  UNL1        0.0000
     20 H          -8.4079    5.7561    4.4191 H       1  UNL1        0.0000
     21 C          -6.9865    4.9539    3.0302 C.ar    1  UNL1        0.0000
     22 H          -7.6722    4.9882    2.1960 H       1  UNL1        0.0000
     23 C          -5.7074    4.4557    2.8557 C.ar    1  UNL1        0.0000
     24 H          -5.3942    4.0995    1.8855 H       1  UNL1        0.0000
     25 C          -2.4544    4.7143    2.3440 C.ar    1  UNL1        0.0000
     26 C          -2.0829    5.9920    2.7531 C.ar    1  UNL1        0.0000
     27 C          -1.7562    6.9692    1.8232 C.ar    1  UNL1        0.0000
     28 H          -1.4530    7.9558    2.1471 H       1  UNL1        0.0000
     29 C          -1.8171    6.6646    0.4745 C.ar    1  UNL1        0.0000
     30 H          -1.5681    7.4191   -0.2573 H       1  UNL1        0.0000
     31 C          -2.1779    5.3913    0.0607 C.ar    1  UNL1        0.0000
     32 H          -2.2096    5.1598   -0.9941 H       1  UNL1        0.0000
     33 C          -2.4985    4.4195    0.9943 C.ar    1  UNL1        0.0000
     34 H          -2.7771    3.4268    0.6723 H       1  UNL1        0.0000
     35 C          -0.1356    1.7502    5.3119 C.ar    1  UNL1        0.0000
     36 C           0.0575    1.5258    3.9516 C.ar    1  UNL1        0.0000
     37 H          -0.7778    1.5839    3.2664 H       1  UNL1        0.0000
     38 C           1.3200    1.2200    3.4756 C.ar    1  UNL1        0.0000
     39 H           1.4642    1.0443    2.4194 H       1  UNL1        0.0000
     40 C           2.3933    1.1319    4.3479 C.ar    1  UNL1        0.0000
     41 H           3.3747    0.8823    3.9728 H       1  UNL1        0.0000
     42 C           2.2074    1.3736    5.6992 C.ar    1  UNL1        0.0000
     43 H           3.0398    1.3158    6.3838 H       1  UNL1        0.0000
     44 C           0.9525    1.6974    6.1784 C.ar    1  UNL1        0.0000
     45 H           0.8087    1.9186    7.2249 H       1  UNL1        0.0000
     46 C          -1.8039    1.1552    7.5105 C.ar    1  UNL1        0.0000
     47 C          -1.1546   -0.0755    7.6018 C.ar    1  UNL1        0.0000
     48 H          -0.5120   -0.4099    6.7992 H       1  UNL1        0.0000
     49 C          -1.3241   -0.8671    8.7228 C.ar    1  UNL1        0.0000
     50 H          -0.8118   -1.8155    8.7907 H       1  UNL1        0.0000
     51 C          -2.1633   -0.4589    9.7480 C.ar    1  UNL1        0.0000
     52 H          -2.3142   -1.0937   10.6079 H       1  UNL1        0.0000
     53 C          -2.7966    0.7700    9.6715 C.ar    1  UNL1        0.0000
     54 H          -3.4505    1.0957   10.4665 H       1  UNL1        0.0000
     55 C          -2.5954    1.5818    8.5698 C.ar    1  UNL1        0.0000
     56 H          -3.0699    2.5511    8.5166 H       1  UNL1        0.0000
     57 C          -4.9943    3.6223    7.5135 C.ar    1  UNL1        0.0000
     58 C          -5.2172    2.3759    6.9285 C.ar    1  UNL1        0.0000
     59 H          -4.8017    2.1749    5.9494 H       1  UNL1        0.0000
     60 C          -5.9512    1.4121    7.5882 C.ar    1  UNL1        0.0000
     61 H          -6.1118    0.4490    7.1267 H       1  UNL1        0.0000
     62 C          -6.4782    1.6850    8.8417 C.ar    1  UNL1        0.0000
     63 H          -7.0470    0.9316    9.3655 H       1  UNL1        0.0000
     64 C          -6.2794    2.9275    9.4178 C.ar    1  UNL1        0.0000
     65 H          -6.6973    3.1460   10.3894 H       1  UNL1        0.0000
     66 C          -5.5430    3.8992    8.7595 C.ar    1  UNL1        0.0000
     67 H          -5.4032    4.8656    9.2206 H       1  UNL1        0.0000
     68 C          -4.1599    6.3492    7.4081 C.ar    1  UNL1        0.0000
     69 C          -4.7594    7.4784    6.8594 C.ar    1  UNL1        0.0000
     70 H          -5.2008    7.4311    5.8753 H       1  UNL1        0.0000
     71 C          -4.8014    8.6637    7.5720 C.ar    1  UNL1        0.0000
     72 H          -5.2906    9.5253    7.1429 H       1  UNL1        0.0000
     73 C          -4.2179    8.7505    8.8246 C.ar    1  UNL1        0.0000
     74 H          -4.2440    9.6801    9.3725 H       1  UNL1        0.0000
     75 C          -3.6056    7.6365    9.3744 C.ar    1  UNL1        0.0000
     76 H          -3.1549    7.6896   10.3546 H       1  UNL1        0.0000
     77 C          -3.5817    6.4440    8.6753 C.ar    1  UNL1        0.0000
     78 H          -3.1369    5.5735    9.1339 H       1  UNL1        0.0000
     79 C          -2.3569    7.8908    4.8754 C.ar    1  UNL1        0.0000
     80 C          -3.3827    8.4742    4.1380 C.ar    1  UNL1        0.0000
     81 H          -3.8690    7.9064    3.3554 H       1  UNL1        0.0000
     82 C          -3.7665    9.7762    4.4034 C.ar    1  UNL1        0.0000
     83 H          -4.5519   10.2333    3.8190 H       1  UNL1        0.0000
     84 C          -3.1451   10.4942    5.4127 C.ar    1  UNL1        0.0000
     85 H          -3.4390   11.5147    5.6081 H       1  UNL1        0.0000
     86 C          -2.1504    9.9036    6.1762 C.ar    1  UNL1        0.0000
     87 H          -1.6702   10.4590    6.9673 H       1  UNL1        0.0000
     88 C          -1.7646    8.6036    5.9141 C.ar    1  UNL1        0.0000
     89 H          -0.9834    8.1366    6.4952 H       1  UNL1        0.0000
     90 C          -0.0088    6.3207    4.3668 C.ar    1  UNL1        0.0000
     91 C           0.7388    7.4804    4.2138 C.ar    1  UNL1        0.0000
     92 H           0.2839    8.4501    4.3541 H       1  UNL1        0.0000
     93 C           2.0804    7.3838    3.8869 C.ar    1  UNL1        0.0000
     94 H           2.6677    8.2841    3.7825 H       1  UNL1        0.0000
     95 C           2.6668    6.1468    3.6753 C.ar    1  UNL1        0.0000
     96 H           3.7088    6.0835    3.4010 H       1  UNL1        0.0000
     97 C           1.9211    4.9873    3.8192 C.ar    1  UNL1        0.0000
     98 H           2.3744    4.0213    3.6614 H       1  UNL1        0.0000
     99 C           0.5935    5.0763    4.1847 C.ar    1  UNL1        0.0000
    100 H          -0.0097    4.1747    4.3132 H       1  UNL1        0.0000
@<TRIPOS>BOND
     1    32    31    1
     2    30    29    1
     3    31    29   ar
     4    31    33   ar
     5    29    27   ar
     6    34    33    1
     7    33    25   ar
     8    27    28    1
     9    27    26   ar
    10    24    23    1
    11    14    13    1
    12    12    11    1
    13    22    21    1
    14    25    26   ar
    15    25     4    1
    16    39    38    1
    17    26     3    1
    18    13    11   ar
    19    13     5   ar
    20    23    21   ar
    21    23    15   ar
    22    11     9   ar
    23    21    19   ar
    24    37    36    1
    25    81    80    1
    26    96    95    1
    27    38    36   ar
    28    38    40   ar
    29    98    97    1
    30    95    97   ar
    31    95    93   ar
    32     5     4    1
    33     5     6   ar
    34    94    93    1
    35    83    82    1
    36    97    99   ar
    37     4    15    1
    38    93    91   ar
    39    15    16   ar
    40    36    35   ar
    41    41    40    1
    42     9    10    1
    43     9     7   ar
    44    80    82   ar
    45    80    79   ar
    46    99   100    1
    47    99    90   ar
    48    91    92    1
    49    91    90   ar
    50    19    20    1
    51    19    17   ar
    52    40    42   ar
    53    90     3    1
    54    82    84   ar
    55     3    79    1
    56     6     7   ar
    57     6     1    1
    58    79    88   ar
    59     7     8    1
    60    16    17   ar
    61    16     2    1
    62    35     1    1
    63    35    44   ar
    64    17    18    1
    65    84    85    1
    66    84    86   ar
    67    42    44   ar
    68    42    43    1
    69    70    69    1
    70    88    86   ar
    71    88    89    1
    72    59    58    1
    73     1    46    1
    74    86    87    1
    75    44    45    1
    76     2    68    1
    77     2    57    1
    78    48    47    1
    79    69    68   ar
    80    69    71   ar
    81    58    57   ar
    82    58    60   ar
    83    61    60    1
    84    72    71    1
    85    68    77   ar
    86    46    47   ar
    87    46    55   ar
    88    57    66   ar
    89    71    73   ar
    90    60    62   ar
    91    47    49   ar
    92    56    55    1
    93    55    53   ar
    94    77    78    1
    95    77    75   ar
    96    49    50    1
    97    49    51   ar
    98    66    67    1
    99    66    64   ar
   100    73    74    1
   101    73    75   ar
   102    62    63    1
   103    62    64   ar
   104    75    76    1
   105    64    65    1
   106    53    51   ar
   107    53    54    1
   108    51    52    1
