@<TRIPOS>MOLECULE
1,2,3,4
 100 108 0 0 0
SMALL
GASTEIGER

@<TRIPOS>ATOM
      1 P           2.6388   -1.0417    4.1765 P.3     1  UNL1        0.0000
      2 P           2.9022    2.0949    6.2798 P.3     1  UNL1        0.0000
      3 P           4.2446    1.9442    2.8536 P.3     1  UNL1        0.0000
      4 SI          4.9018    0.3718    5.1789 Si      1  UNL1        0.0000
      5 C           1.0298   -1.7712    4.6555 C.ar    1  UNL1        0.0000
      6 C           0.7866   -1.7764    6.0293 C.ar    1  UNL1        0.0000
      7 H           1.5513   -1.3999    6.6979 H       1  UNL1        0.0000
      8 C          -0.4068   -2.2555    6.5301 C.ar    1  UNL1        0.0000
      9 H          -0.5787   -2.2585    7.5968 H       1  UNL1        0.0000
     10 C          -1.3814   -2.7219    5.6611 C.ar    1  UNL1        0.0000
     11 H          -2.3203   -3.0912    6.0475 H       1  UNL1        0.0000
     12 C          -1.1482   -2.7163    4.2970 C.ar    1  UNL1        0.0000
     13 H          -1.9055   -3.0818    3.6183 H       1  UNL1        0.0000
     14 C           0.0523   -2.2475    3.7905 C.ar    1  UNL1        0.0000
     15 H           0.2247   -2.2628    2.7239 H       1  UNL1        0.0000
     16 C           2.8347   -1.7016    2.4917 C.ar    1  UNL1        0.0000
     17 C           2.0028   -1.1551    1.5150 C.ar    1  UNL1        0.0000
     18 H           1.3138   -0.3646    1.7909 H       1  UNL1        0.0000
     19 C           2.0667   -1.6078    0.2126 C.ar    1  UNL1        0.0000
     20 H           1.4000   -1.2011   -0.5341 H       1  UNL1        0.0000
     21 C           2.9960   -2.5761   -0.1353 C.ar    1  UNL1        0.0000
     22 H           3.0510   -2.9291   -1.1549 H       1  UNL1        0.0000
     23 C           3.8636   -3.0791    0.8192 C.ar    1  UNL1        0.0000
     24 H           4.6035   -3.8162    0.5412 H       1  UNL1        0.0000
     25 C           3.7836   -2.6507    2.1330 C.ar    1  UNL1        0.0000
     26 H           4.4568   -3.0513    2.8784 H       1  UNL1        0.0000
     27 C           3.7337   -2.1086    5.1607 C.ar    1  UNL1        0.0000
     28 C           3.5149   -3.4620    5.3865 C.ar    1  UNL1        0.0000
     29 H           2.6608   -3.9586    4.9442 H       1  UNL1        0.0000
     30 C           4.4003   -4.1612    6.1872 C.ar    1  UNL1        0.0000
     31 H           4.2405   -5.2137    6.3741 H       1  UNL1        0.0000
     32 C           5.4872   -3.5145    6.7579 C.ar    1  UNL1        0.0000
     33 H           6.1662   -4.0675    7.3916 H       1  UNL1        0.0000
     34 C           5.7040   -2.1674    6.5193 C.ar    1  UNL1        0.0000
     35 H           6.5475   -1.6638    6.9686 H       1  UNL1        0.0000
     36 C           4.8302   -1.4559    5.7173 C.ar    1  UNL1        0.0000
     37 C           2.0458    1.1967    7.6178 C.ar    1  UNL1        0.0000
     38 C           0.6637    1.3193    7.7466 C.ar    1  UNL1        0.0000
     39 H           0.1301    2.0192    7.1154 H       1  UNL1        0.0000
     40 C          -0.0181    0.5616    8.6789 C.ar    1  UNL1        0.0000
     41 H          -1.0891    0.6686    8.7776 H       1  UNL1        0.0000
     42 C           0.6697   -0.3347    9.4822 C.ar    1  UNL1        0.0000
     43 H           0.1372   -0.9240   10.2149 H       1  UNL1        0.0000
     44 C           2.0409   -0.4784    9.3421 C.ar    1  UNL1        0.0000
     45 H           2.5771   -1.1848    9.9598 H       1  UNL1        0.0000
     46 C           2.7286    0.2778    8.4102 C.ar    1  UNL1        0.0000
     47 H           3.7979    0.1574    8.2931 H       1  UNL1        0.0000
     48 C           2.1087    3.7332    6.4270 C.ar    1  UNL1        0.0000
     49 C           1.6940    4.2772    7.6415 C.ar    1  UNL1        0.0000
     50 H           1.7789    3.6981    8.5517 H       1  UNL1        0.0000
     51 C           1.1489    5.5470    7.6776 C.ar    1  UNL1        0.0000
     52 H           0.8288    5.9664    8.6210 H       1  UNL1        0.0000
     53 C           1.0081    6.2819    6.5106 C.ar    1  UNL1        0.0000
     54 H           0.5818    7.2740    6.5472 H       1  UNL1        0.0000
     55 C           1.4029    5.7399    5.2992 C.ar    1  UNL1        0.0000
     56 H           1.2849    6.3057    4.3863 H       1  UNL1        0.0000
     57 C           1.9487    4.4704    5.2593 C.ar    1  UNL1        0.0000
     58 H           2.2539    4.0302    4.3170 H       1  UNL1        0.0000
     59 C           4.5241    2.3444    7.0859 C.ar    1  UNL1        0.0000
     60 C           4.8129    3.2756    8.0728 C.ar    1  UNL1        0.0000
     61 H           4.0606    3.9712    8.4156 H       1  UNL1        0.0000
     62 C           6.0909    3.3231    8.6044 C.ar    1  UNL1        0.0000
     63 H           6.3255    4.0503    9.3689 H       1  UNL1        0.0000
     64 C           7.0689    2.4491    8.1577 C.ar    1  UNL1        0.0000
     65 H           8.0640    2.4964    8.5766 H       1  UNL1        0.0000
     66 C           6.7764    1.5272    7.1658 C.ar    1  UNL1        0.0000
     67 H           7.5427    0.8603    6.8000 H       1  UNL1        0.0000
     68 C           5.5073    1.4689    6.6216 C.ar    1  UNL1        0.0000
     69 C           3.6534    1.7603    1.1426 C.ar    1  UNL1        0.0000
     70 C           2.5210    2.4970    0.7952 C.ar    1  UNL1        0.0000
     71 H           2.0847    3.1652    1.5285 H       1  UNL1        0.0000
     72 C           1.9735    2.3794   -0.4663 C.ar    1  UNL1        0.0000
     73 H           1.1004    2.9572   -0.7347 H       1  UNL1        0.0000
     74 C           2.5490    1.5207   -1.3913 C.ar    1  UNL1        0.0000
     75 H           2.1286    1.4360   -2.3832 H       1  UNL1        0.0000
     76 C           3.6539    0.7640   -1.0403 C.ar    1  UNL1        0.0000
     77 H           4.0920    0.0825   -1.7554 H       1  UNL1        0.0000
     78 C           4.1993    0.8689    0.2274 C.ar    1  UNL1        0.0000
     79 H           5.0467    0.2574    0.5055 H       1  UNL1        0.0000
     80 C           4.6881    3.7235    2.8676 C.ar    1  UNL1        0.0000
     81 C           4.8368    4.5112    1.7313 C.ar    1  UNL1        0.0000
     82 H           4.6318    4.1015    0.7518 H       1  UNL1        0.0000
     83 C           5.2345    5.8307    1.8573 C.ar    1  UNL1        0.0000
     84 H           5.3412    6.4425    0.9726 H       1  UNL1        0.0000
     85 C           5.4965    6.3698    3.1059 C.ar    1  UNL1        0.0000
     86 H           5.8038    7.4017    3.1947 H       1  UNL1        0.0000
     87 C           5.3630    5.5846    4.2400 C.ar    1  UNL1        0.0000
     88 H           5.5669    5.9974    5.2175 H       1  UNL1        0.0000
     89 C           4.9619    4.2694    4.1177 C.ar    1  UNL1        0.0000
     90 H           4.8420    3.6468    4.9984 H       1  UNL1        0.0000
     91 C           5.9450    1.2980    2.7928 C.ar    1  UNL1        0.0000
     92 C           6.2921    0.4886    3.8714 C.ar    1  UNL1        0.0000
     93 C           7.5587   -0.0671    3.9148 C.ar    1  UNL1        0.0000
     94 H           7.8276   -0.7172    4.7345 H       1  UNL1        0.0000
     95 C           8.4718    0.2002    2.9089 C.ar    1  UNL1        0.0000
     96 H           9.4585   -0.2400    2.9427 H       1  UNL1        0.0000
     97 C           8.1317    1.0444    1.8617 C.ar    1  UNL1        0.0000
     98 H           8.8563    1.2660    1.0908 H       1  UNL1        0.0000
     99 C           6.8674    1.6014    1.7989 C.ar    1  UNL1        0.0000
    100 H           6.5998    2.2641    0.9866 H       1  UNL1        0.0000
@<TRIPOS>BOND
     1    75    74    1
     2    77    76    1
     3    74    76   ar
     4    74    72   ar
     5    22    21    1
     6    76    78   ar
     7    73    72    1
     8    20    19    1
     9    72    70   ar
    10    21    19   ar
    11    21    23   ar
    12    19    17   ar
    13    78    79    1
    14    78    69   ar
    15    24    23    1
    16    82    81    1
    17    70    69   ar
    18    70    71    1
    19    23    25   ar
    20    84    83    1
    21   100    99    1
    22    98    97    1
    23    69     3    1
    24    17    18    1
    25    17    16   ar
    26    81    83   ar
    27    81    80   ar
    28    99    97   ar
    29    99    91   ar
    30    83    85   ar
    31    97    95   ar
    32    25    16   ar
    33    25    26    1
    34    16     1    1
    35    15    14    1
    36    91     3    1
    37    91    92   ar
    38     3    80    1
    39    80    89   ar
    40    95    96    1
    41    95    93   ar
    42    85    86    1
    43    85    87   ar
    44    13    12    1
    45    14    12   ar
    46    14     5   ar
    47    92    93   ar
    48    92     4    1
    49    93    94    1
    50    89    87   ar
    51    89    90    1
    52     1     5    1
    53     1    27    1
    54    87    88    1
    55    12    10   ar
    56    58    57    1
    57    56    55    1
    58     5     6   ar
    59    29    28    1
    60    27    28   ar
    61    27    36   ar
    62     4    36    1
    63     4    68    1
    64    57    55   ar
    65    57    48   ar
    66    55    53   ar
    67    28    30   ar
    68    10    11    1
    69    10     8   ar
    70    36    34   ar
    71     6     8   ar
    72     6     7    1
    73    30    31    1
    74    30    32   ar
    75     2    48    1
    76     2    59    1
    77     2    37    1
    78    48    49   ar
    79    53    54    1
    80    53    51   ar
    81    34    32   ar
    82    34    35    1
    83     8     9    1
    84    68    59   ar
    85    68    66   ar
    86    32    33    1
    87    67    66    1
    88    59    60   ar
    89    39    38    1
    90    66    64   ar
    91    37    38   ar
    92    37    46   ar
    93    49    51   ar
    94    49    50    1
    95    51    52    1
    96    38    40   ar
    97    60    61    1
    98    60    62   ar
    99    64    65    1
   100    64    62   ar
   101    47    46    1
   102    46    44   ar
   103    62    63    1
   104    40    41    1
   105    40    42   ar
   106    44    42   ar
   107    44    45    1
   108    42    43    1
