@<TRIPOS>MOLECULE
1,2,3,4
 100 108 0 0 0
SMALL
GASTEIGER

@<TRIPOS>ATOM
      1 P           0.4040    6.8528    2.0778 P.3     1  UNL1        0.0000
      2 SI          1.3828    8.2007   -0.3757 Si      1  UNL1        0.0000
      3 P           1.2704    9.9426    1.9703 P.3     1  UNL1        0.0000
      4 P           3.4422    6.4837    0.6815 P.3     1  UNL1        0.0000
      5 C           0.2320    5.0253    1.9966 C.ar    1  UNL1        0.0000
      6 C          -0.3019    7.2013    3.7177 C.ar    1  UNL1        0.0000
      7 C           2.7665   10.9091    2.3637 C.ar    1  UNL1        0.0000
      8 C           4.7726    2.6285    2.8030 C.ar    1  UNL1        0.0000
      9 H           5.0595    1.7189    3.3104 H       1  UNL1        0.0000
     10 C           5.9629    7.3324    1.4225 C.ar    1  UNL1        0.0000
     11 H           5.6823    6.9043    2.3764 H       1  UNL1        0.0000
     12 C           3.3535    4.5467    2.6229 C.ar    1  UNL1        0.0000
     13 H           2.5585    5.1791    2.9947 H       1  UNL1        0.0000
     14 C           1.1571   10.7937    0.3089 C.ar    1  UNL1        0.0000
     15 C           4.0247    4.9462    1.4741 C.ar    1  UNL1        0.0000
     16 C           2.9690    6.0313   -1.0303 C.ar    1  UNL1        0.0000
     17 C          -1.3513   10.6463    1.7952 C.ar    1  UNL1        0.0000
     18 H          -1.2591   10.1730    0.8256 H       1  UNL1        0.0000
     19 C          -0.3508    4.2248    2.9721 C.ar    1  UNL1        0.0000
     20 H          -0.7435    4.6640    3.8781 H       1  UNL1        0.0000
     21 C           1.6967    6.7561   -2.9295 C.ar    1  UNL1        0.0000
     22 H           1.0045    7.4513   -3.3796 H       1  UNL1        0.0000
     23 C          -0.4979    7.8212   -0.2984 C.ar    1  UNL1        0.0000
     24 C           5.0639    7.2645    0.3592 C.ar    1  UNL1        0.0000
     25 C          -0.3694   11.2970    3.8878 C.ar    1  UNL1        0.0000
     26 H           0.4703   11.3090    4.5621 H       1  UNL1        0.0000
     27 C           0.0663    2.2725    1.6316 C.ar    1  UNL1        0.0000
     28 H           0.0104    1.2021    1.4986 H       1  UNL1        0.0000
     29 C           2.0768    6.9341   -1.6134 C.ar    1  UNL1        0.0000
     30 C           0.6996    4.4346    0.8262 C.ar    1  UNL1        0.0000
     31 H           1.1217    5.0679    0.0568 H       1  UNL1        0.0000
     32 C          -2.5634   11.1770    2.1916 C.ar    1  UNL1        0.0000
     33 H          -3.4180   11.1177    1.5323 H       1  UNL1        0.0000
     34 C          -0.0331    6.9909    6.1024 C.ar    1  UNL1        0.0000
     35 H           0.4985    6.5848    6.9517 H       1  UNL1        0.0000
     36 C          -2.6797   11.7837    3.4322 C.ar    1  UNL1        0.0000
     37 H          -3.6249   12.2064    3.7420 H       1  UNL1        0.0000
     38 C           7.5218    8.5099    0.0321 C.ar    1  UNL1        0.0000
     39 H           8.4828    8.9856   -0.1000 H       1  UNL1        0.0000
     40 C           4.1359   12.6703    3.2365 C.ar    1  UNL1        0.0000
     41 H           4.2285   13.6060    3.7698 H       1  UNL1        0.0000
     42 C           5.3864    7.8611   -0.8549 C.ar    1  UNL1        0.0000
     43 H           4.6791    7.8374   -1.6728 H       1  UNL1        0.0000
     44 C           3.4414    4.9444   -1.7509 C.ar    1  UNL1        0.0000
     45 H           4.0945    4.2175   -1.2916 H       1  UNL1        0.0000
     46 C           1.3593   10.0303   -0.8353 C.ar    1  UNL1        0.0000
     47 C          -1.1212    7.8270    6.2988 C.ar    1  UNL1        0.0000
     48 H          -1.4384    8.0744    7.3018 H       1  UNL1        0.0000
     49 C          -1.3869    8.0442    3.9226 C.ar    1  UNL1        0.0000
     50 H          -1.9127    8.4654    3.0789 H       1  UNL1        0.0000
     51 C          -1.7944    8.3501    5.2091 C.ar    1  UNL1        0.0000
     52 H          -2.6373    9.0098    5.3571 H       1  UNL1        0.0000
     53 C           0.9876   12.1671    0.1996 C.ar    1  UNL1        0.0000
     54 H           0.8204   12.7642    1.0871 H       1  UNL1        0.0000
     55 C           5.1163    4.2065    1.0249 C.ar    1  UNL1        0.0000
     56 H           5.6959    4.5519    0.1792 H       1  UNL1        0.0000
     57 C          -2.7756    7.8095   -1.0715 C.ar    1  UNL1        0.0000
     58 H          -3.5066    8.0555   -1.8287 H       1  UNL1        0.0000
     59 C           6.6155    8.4774   -1.0148 C.ar    1  UNL1        0.0000
     60 H           6.8674    8.9324   -1.9617 H       1  UNL1        0.0000
     61 C           3.7191    3.3888    3.2828 C.ar    1  UNL1        0.0000
     62 H           3.1875    3.0799    4.1713 H       1  UNL1        0.0000
     63 C          -2.2512    6.8657    1.0726 C.ar    1  UNL1        0.0000
     64 H          -2.5565    6.3546    1.9762 H       1  UNL1        0.0000
     65 C           1.4084   10.6390   -2.0767 C.ar    1  UNL1        0.0000
     66 H           1.5742   10.0388   -2.9600 H       1  UNL1        0.0000
     67 C           3.0457    4.7772   -3.0681 C.ar    1  UNL1        0.0000
     68 H           3.4099    3.9305   -3.6325 H       1  UNL1        0.0000
     69 C           5.1594   10.8420    2.0624 C.ar    1  UNL1        0.0000
     70 H           6.0405   10.3492    1.6779 H       1  UNL1        0.0000
     71 C          -0.2405   10.7056    2.6374 C.ar    1  UNL1        0.0000
     72 C           1.2512   12.0099   -2.1823 C.ar    1  UNL1        0.0000
     73 H           1.2937   12.4891   -3.1503 H       1  UNL1        0.0000
     74 C          -3.1782    7.1723    0.0928 C.ar    1  UNL1        0.0000
     75 H          -4.2180    6.9138    0.2351 H       1  UNL1        0.0000
     76 C           1.0317   12.7711   -1.0441 C.ar    1  UNL1        0.0000
     77 H           0.9020   13.8411   -1.1283 H       1  UNL1        0.0000
     78 C           0.3783    6.6843    4.8206 C.ar    1  UNL1        0.0000
     79 H           1.2403    6.0488    4.6627 H       1  UNL1        0.0000
     80 C          -0.4266    2.8547    2.7864 C.ar    1  UNL1        0.0000
     81 H          -0.8752    2.2379    3.5523 H       1  UNL1        0.0000
     82 C          -0.9211    7.2214    0.8859 C.ar    1  UNL1        0.0000
     83 C          -1.4408    8.1191   -1.2703 C.ar    1  UNL1        0.0000
     84 H          -1.1271    8.6071   -2.1818 H       1  UNL1        0.0000
     85 C          -1.5823   11.8409    4.2741 C.ar    1  UNL1        0.0000
     86 H          -1.6721   12.3089    5.2445 H       1  UNL1        0.0000
     87 C           7.1902    7.9440    1.2547 C.ar    1  UNL1        0.0000
     88 H           7.8900    7.9849    2.0773 H       1  UNL1        0.0000
     89 C           5.4787    3.0473    1.6859 C.ar    1  UNL1        0.0000
     90 H           6.3215    2.4697    1.3334 H       1  UNL1        0.0000
     91 C           2.1870    5.6875   -3.6623 C.ar    1  UNL1        0.0000
     92 H           1.8876    5.5520   -4.6918 H       1  UNL1        0.0000
     93 C           0.6231    3.0688    0.6432 C.ar    1  UNL1        0.0000
     94 H           0.9972    2.6258   -0.2684 H       1  UNL1        0.0000
     95 C           5.2701   12.0391    2.7528 C.ar    1  UNL1        0.0000
     96 H           6.2433   12.4813    2.9096 H       1  UNL1        0.0000
     97 C           3.9104   10.2874    1.8666 C.ar    1  UNL1        0.0000
     98 H           3.8020    9.3537    1.2935 H       1  UNL1        0.0000
     99 C           2.8839   12.1112    3.0465 C.ar    1  UNL1        0.0000
    100 H           2.0043   12.6036    3.4331 H       1  UNL1        0.0000
@<TRIPOS>BOND
     1    92    91    1
     2    91    67   ar
     3    91    21   ar
     4    68    67    1
     5    22    21    1
     6    73    72    1
     7    67    44   ar
     8    66    65    1
     9    21    29   ar
    10    72    65   ar
    11    72    76   ar
    12    84    83    1
    13    65    46   ar
    14    60    59    1
    15    58    57    1
    16    44    45    1
    17    44    16   ar
    18    43    42    1
    19    29    16   ar
    20    29     2    1
    21    83    57   ar
    22    83    23   ar
    23    77    76    1
    24    57    74   ar
    25    76    53   ar
    26    16     4    1
    27    59    42   ar
    28    59    38   ar
    29    42    24   ar
    30    46     2    1
    31    46    14   ar
    32     2    23    1
    33    23    82   ar
    34    94    93    1
    35    39    38    1
    36    38    87   ar
    37    31    30    1
    38    74    75    1
    39    74    63   ar
    40    56    55    1
    41    53    14   ar
    42    53    54    1
    43    14     3    1
    44    24     4    1
    45    24    10   ar
    46    93    30   ar
    47    93    27   ar
    48     4    15    1
    49    18    17    1
    50    30     5   ar
    51    82    63   ar
    52    82     1    1
    53    55    15   ar
    54    55    89   ar
    55    63    64    1
    56    87    10   ar
    57    87    88    1
    58    98    97    1
    59    90    89    1
    60    10    11    1
    61    15    12   ar
    62    28    27    1
    63    33    32    1
    64    27    80   ar
    65    70    69    1
    66    89     8   ar
    67    17    32   ar
    68    17    71   ar
    69    97    69   ar
    70    97     7   ar
    71     3     7    1
    72     3    71    1
    73     5     1    1
    74     5    19   ar
    75    69    95   ar
    76     1     6    1
    77    32    36   ar
    78     7    99   ar
    79    12    13    1
    80    12    61   ar
    81    71    25   ar
    82    95    96    1
    83    95    40   ar
    84    80    19   ar
    85    80    81    1
    86     8    61   ar
    87     8     9    1
    88    19    20    1
    89    99    40   ar
    90    99   100    1
    91    50    49    1
    92    40    41    1
    93    61    62    1
    94    36    37    1
    95    36    85   ar
    96     6    49   ar
    97     6    78   ar
    98    25    85   ar
    99    25    26    1
   100    49    51   ar
   101    85    86    1
   102    79    78    1
   103    78    34   ar
   104    51    52    1
   105    51    47   ar
   106    34    47   ar
   107    34    35    1
   108    47    48    1
