@<TRIPOS>MOLECULE
1,2,3,5
 114 122 0 0 0
SMALL
GASTEIGER

@<TRIPOS>ATOM
      1 P          13.4134    7.1979    5.5214 P.3     1  UNL1        0.0000
      2 P          12.8103   10.1335    5.7630 P.3     1  UNL1        0.0000
      3 P          16.7355    8.2142    4.0893 P.3     1  UNL1        0.0000
      4 P          19.8859    9.9080    1.4528 P.3     1  UNL1        0.0000
      5 SI         14.0358    8.0614    2.7710 Si      1  UNL1        0.0000
      6 C          13.8703    8.8900    1.0587 C.ar    1  UNL1        0.0000
      7 C          14.4339    8.3729   -0.1000 C.ar    1  UNL1        0.0000
      8 C          14.2660    9.0034   -1.3209 C.ar    1  UNL1        0.0000
      9 C          13.5382   10.1791   -1.4000 C.ar    1  UNL1        0.0000
     10 C          12.9936   10.7232   -0.2484 C.ar    1  UNL1        0.0000
     11 C          13.1604   10.0802    0.9644 C.ar    1  UNL1        0.0000
     12 C          12.4215    6.3864    4.2457 C.ar    1  UNL1        0.0000
     13 C          12.5360    6.8892    2.9539 C.ar    1  UNL1        0.0000
     14 C          11.6900    6.3950    1.9743 C.ar    1  UNL1        0.0000
     15 C          10.7677    5.4055    2.2726 C.ar    1  UNL1        0.0000
     16 C          10.7010    4.8755    3.5529 C.ar    1  UNL1        0.0000
     17 C          11.5253    5.3675    4.5493 C.ar    1  UNL1        0.0000
     18 C          14.1870    5.8198    6.4142 C.ar    1  UNL1        0.0000
     19 C          14.6097    4.7036    5.6916 C.ar    1  UNL1        0.0000
     20 C          15.3569    3.7193    6.3094 C.ar    1  UNL1        0.0000
     21 C          15.7042    3.8454    7.6463 C.ar    1  UNL1        0.0000
     22 C          15.3129    4.9661    8.3618 C.ar    1  UNL1        0.0000
     23 C          14.5674    5.9561    7.7485 C.ar    1  UNL1        0.0000
     24 C          12.0208    7.7099    6.6533 C.3     1  UNL1        0.0000
     25 C          11.4140    8.9365    5.9913 C.3     1  UNL1        0.0000
     26 C          12.0945   11.5024    4.8241 C.ar    1  UNL1        0.0000
     27 C          11.1908   11.2956    3.7869 C.ar    1  UNL1        0.0000
     28 C          10.7934   12.3551    2.9905 C.ar    1  UNL1        0.0000
     29 C          11.3073   13.6228    3.2074 C.ar    1  UNL1        0.0000
     30 C          12.2269   13.8308    4.2231 C.ar    1  UNL1        0.0000
     31 C          12.6251   12.7761    5.0218 C.ar    1  UNL1        0.0000
     32 C          12.8140   10.7929    7.4685 C.ar    1  UNL1        0.0000
     33 C          13.7529   10.2887    8.3619 C.ar    1  UNL1        0.0000
     34 C          13.7652   10.7090    9.6803 C.ar    1  UNL1        0.0000
     35 C          12.8334   11.6351   10.1181 C.ar    1  UNL1        0.0000
     36 C          11.8849   12.1317    9.2374 C.ar    1  UNL1        0.0000
     37 C          11.8693   11.7105    7.9210 C.ar    1  UNL1        0.0000
     38 C          16.5094    6.6915    3.1498 C.ar    1  UNL1        0.0000
     39 C          15.2881    6.6110    2.4805 C.ar    1  UNL1        0.0000
     40 C          15.0293    5.4658    1.7397 C.ar    1  UNL1        0.0000
     41 C          15.9486    4.4308    1.6769 C.ar    1  UNL1        0.0000
     42 C          17.1543    4.5268    2.3525 C.ar    1  UNL1        0.0000
     43 C          17.4409    5.6631    3.0881 C.ar    1  UNL1        0.0000
     44 C          18.0446    7.8431    5.2871 C.ar    1  UNL1        0.0000
     45 C          19.1843    8.6166    5.4870 C.ar    1  UNL1        0.0000
     46 C          20.0377    8.3297    6.5390 C.ar    1  UNL1        0.0000
     47 C          19.7616    7.2822    7.4018 C.ar    1  UNL1        0.0000
     48 C          18.6202    6.5160    7.2169 C.ar    1  UNL1        0.0000
     49 C          17.7649    6.8009    6.1717 C.ar    1  UNL1        0.0000
     50 C          17.5540    9.2951    2.8506 C.3     1  UNL1        0.0000
     51 C          18.6870    8.6228    2.0867 C.3     1  UNL1        0.0000
     52 C          18.7050   11.0417    0.6191 C.ar    1  UNL1        0.0000
     53 C          17.6735   10.5958   -0.2001 C.ar    1  UNL1        0.0000
     54 C          16.8203   11.5056   -0.7947 C.ar    1  UNL1        0.0000
     55 C          16.9915   12.8647   -0.5854 C.ar    1  UNL1        0.0000
     56 C          18.0203   13.3162    0.2233 C.ar    1  UNL1        0.0000
     57 C          18.8706   12.4059    0.8267 C.ar    1  UNL1        0.0000
     58 C          20.5191    9.0276   -0.0221 C.ar    1  UNL1        0.0000
     59 C          20.8659    7.6821    0.0512 C.ar    1  UNL1        0.0000
     60 C          21.4189    7.0431   -1.0432 C.ar    1  UNL1        0.0000
     61 C          21.6478    7.7424   -2.2164 C.ar    1  UNL1        0.0000
     62 C          21.3285    9.0883   -2.2879 C.ar    1  UNL1        0.0000
     63 C          20.7751    9.7301   -1.1960 C.ar    1  UNL1        0.0000
     64 H          15.0084    7.4590   -0.0487 H       1  UNL1        0.0000
     65 H          14.7036    8.5784   -2.2147 H       1  UNL1        0.0000
     66 H          13.4003   10.6709   -2.3537 H       1  UNL1        0.0000
     67 H          12.4364   11.6491   -0.2993 H       1  UNL1        0.0000
     68 H          12.7414   10.5078    1.8635 H       1  UNL1        0.0000
     69 H          11.7589    6.7943    0.9722 H       1  UNL1        0.0000
     70 H          10.1072    5.0296    1.5037 H       1  UNL1        0.0000
     71 H          10.0007    4.0828    3.7753 H       1  UNL1        0.0000
     72 H          11.4822    4.9510    5.5483 H       1  UNL1        0.0000
     73 H          14.3482    4.6223    4.6440 H       1  UNL1        0.0000
     74 H          15.6759    2.8543    5.7463 H       1  UNL1        0.0000
     75 H          16.2882    3.0744    8.1273 H       1  UNL1        0.0000
     76 H          15.5963    5.0705    9.3996 H       1  UNL1        0.0000
     77 H          14.2795    6.8406    8.3041 H       1  UNL1        0.0000
     78 H          12.4217    7.9751    7.6392 H       1  UNL1        0.0000
     79 H          11.2906    6.9029    6.7724 H       1  UNL1        0.0000
     80 H          11.0291    8.6578    5.0040 H       1  UNL1        0.0000
     81 H          10.6107    9.3798    6.5895 H       1  UNL1        0.0000
     82 H          10.8002   10.3052    3.5983 H       1  UNL1        0.0000
     83 H          10.0858   12.1884    2.1909 H       1  UNL1        0.0000
     84 H          10.9971   14.4471    2.5817 H       1  UNL1        0.0000
     85 H          12.6347   14.8181    4.3897 H       1  UNL1        0.0000
     86 H          13.3498   12.9307    5.8121 H       1  UNL1        0.0000
     87 H          14.4860    9.5657    8.0120 H       1  UNL1        0.0000
     88 H          14.5015   10.3157   10.3673 H       1  UNL1        0.0000
     89 H          12.8435   11.9684   11.1456 H       1  UNL1        0.0000
     90 H          11.1531   12.8487    9.5814 H       1  UNL1        0.0000
     91 H          11.1267   12.0954    7.2346 H       1  UNL1        0.0000
     92 H          14.0859    5.3741    1.2200 H       1  UNL1        0.0000
     93 H          15.7215    3.5411    1.1060 H       1  UNL1        0.0000
     94 H          17.8680    3.7161    2.3101 H       1  UNL1        0.0000
     95 H          18.3771    5.7394    3.6267 H       1  UNL1        0.0000
     96 H          19.4149    9.4403    4.8250 H       1  UNL1        0.0000
     97 H          20.9241    8.9303    6.6864 H       1  UNL1        0.0000
     98 H          20.4324    7.0653    8.2205 H       1  UNL1        0.0000
     99 H          18.3950    5.7009    7.8899 H       1  UNL1        0.0000
    100 H          16.8671    6.2131    6.0178 H       1  UNL1        0.0000
    101 H          17.9002   10.1885    3.3895 H       1  UNL1        0.0000
    102 H          16.7582    9.6238    2.1715 H       1  UNL1        0.0000
    103 H          18.2958    8.0092    1.2709 H       1  UNL1        0.0000
    104 H          19.2572    7.9685    2.7552 H       1  UNL1        0.0000
    105 H          17.5383    9.5387   -0.3806 H       1  UNL1        0.0000
    106 H          16.0146   11.1517   -1.4198 H       1  UNL1        0.0000
    107 H          16.3213   13.5709   -1.0533 H       1  UNL1        0.0000
    108 H          18.1592   14.3759    0.3851 H       1  UNL1        0.0000
    109 H          19.6756   12.7483    1.4637 H       1  UNL1        0.0000
    110 H          20.7016    7.1317    0.9668 H       1  UNL1        0.0000
    111 H          21.6756    5.9953   -0.9794 H       1  UNL1        0.0000
    112 H          22.0792    7.2414   -3.0705 H       1  UNL1        0.0000
    113 H          21.5136    9.6408   -3.1979 H       1  UNL1        0.0000
    114 H          20.5307   10.7821   -1.2526 H       1  UNL1        0.0000
@<TRIPOS>BOND
     1   113    62    1
     2   112    61    1
     3    66     9    1
     4    62    61   ar
     5    62    63   ar
     6    61    60   ar
     7    65     8    1
     8   106    54    1
     9     9     8   ar
    10     9    10   ar
    11     8     7   ar
    12   114    63    1
    13    63    58   ar
    14   107    55    1
    15    60   111    1
    16    60    59   ar
    17    54    55   ar
    18    54    53   ar
    19    55    56   ar
    20   105    53    1
    21    67    10    1
    22    10    11   ar
    23    53    52   ar
    24     7    64    1
    25     7     6   ar
    26    58    59   ar
    27    58     4    1
    28    59   110    1
    29    56   108    1
    30    56    57   ar
    31    52    57   ar
    32    52     4    1
    33    57   109    1
    34    11     6   ar
    35    11    68    1
    36    69    14    1
    37     6     5    1
    38    93    41    1
    39    92    40    1
    40   103    51    1
    41     4    51    1
    42    70    15    1
    43    41    40   ar
    44    41    42   ar
    45    40    39   ar
    46    14    15   ar
    47    14    13   ar
    48    51   104    1
    49    51    50    1
    50   102    50    1
    51    83    28    1
    52    15    16   ar
    53    94    42    1
    54    42    43   ar
    55    39     5    1
    56    39    38   ar
    57    84    29    1
    58     5    13    1
    59    50   101    1
    60    50     3    1
    61    13    12   ar
    62    28    29   ar
    63    28    27   ar
    64    43    38   ar
    65    43    95    1
    66    38     3    1
    67    29    30   ar
    68    16    71    1
    69    16    17   ar
    70    82    27    1
    71    27    26   ar
    72     3    44    1
    73    30    85    1
    74    30    31   ar
    75    12    17   ar
    76    12     1    1
    77    17    72    1
    78    73    19    1
    79    26    31   ar
    80    26     2    1
    81    96    45    1
    82    80    25    1
    83    31    86    1
    84    44    45   ar
    85    44    49   ar
    86    45    46   ar
    87     1    18    1
    88     1    24    1
    89    19    20   ar
    90    19    18   ar
    91    74    20    1
    92     2    25    1
    93     2    32    1
    94    25    81    1
    95    25    24    1
    96   100    49    1
    97    49    48   ar
    98    20    21   ar
    99    18    23   ar
   100    46    97    1
   101    46    47   ar
   102    24    79    1
   103    24    78    1
   104    48    47   ar
   105    48    99    1
   106    91    37    1
   107    47    98    1
   108    32    37   ar
   109    32    33   ar
   110    21    75    1
   111    21    22   ar
   112    23    77    1
   113    23    22   ar
   114    37    36   ar
   115    87    33    1
   116    22    76    1
   117    33    34   ar
   118    36    90    1
   119    36    35   ar
   120    34    35   ar
   121    34    88    1
   122    35    89    1
