@<TRIPOS>MOLECULE
1,2,33,64
 94 96 0 0 0
SMALL
GASTEIGER

@<TRIPOS>ATOM
      1 SI         15.4162    9.4054   11.1128 Si      1  UNL1        0.0000
      2 P          17.1489   10.5042   13.3570 P.3     1  UNL1        0.0000
      3 C          16.3543   11.7817   12.3174 C.ar    1  UNL1        0.0000
      4 C          16.4087   13.1500   12.5501 C.ar    1  UNL1        0.0000
      5 H          16.8886   13.5400   13.4361 H       1  UNL1        0.0000
      6 C          15.8172   14.0323   11.6606 C.ar    1  UNL1        0.0000
      7 H          15.8597   15.0958   11.8507 H       1  UNL1        0.0000
      8 C          15.1714   13.5558   10.5329 C.ar    1  UNL1        0.0000
      9 H          14.7181   14.2472    9.8368 H       1  UNL1        0.0000
     10 C          15.0873   12.1901   10.3146 C.ar    1  UNL1        0.0000
     11 H          14.5517   11.8155    9.4543 H       1  UNL1        0.0000
     12 C          15.6681   11.2980   11.1981 C.ar    1  UNL1        0.0000
     13 C          18.9356   10.7930   12.8133 C.3     1  UNL1        0.0000
     14 H          19.5258   10.0567   13.3715 H       1  UNL1        0.0000
     15 C          19.5240   12.1757   13.0739 C.3     1  UNL1        0.0000
     16 H          20.5444   12.2024   12.6909 H       1  UNL1        0.0000
     17 H          19.5657   12.4150   14.1334 H       1  UNL1        0.0000
     18 H          18.9544   12.9429   12.5552 H       1  UNL1        0.0000
     19 C          19.0458   10.4647   11.3292 C.3     1  UNL1        0.0000
     20 H          18.4996   11.1944   10.7341 H       1  UNL1        0.0000
     21 H          18.6274    9.4838   11.1243 H       1  UNL1        0.0000
     22 H          20.0878   10.4733   11.0107 H       1  UNL1        0.0000
     23 C          17.2029   11.2376   15.0794 C.3     1  UNL1        0.0000
     24 H          17.6775   12.2226   15.0777 H       1  UNL1        0.0000
     25 C          15.7805   11.3644   15.6048 C.3     1  UNL1        0.0000
     26 H          15.2867   10.3943   15.5412 H       1  UNL1        0.0000
     27 H          15.2106   12.0799   15.0159 H       1  UNL1        0.0000
     28 H          15.7780   11.6883   16.6456 H       1  UNL1        0.0000
     29 C          18.0035   10.2795   15.9581 C.3     1  UNL1        0.0000
     30 H          17.9589   10.5846   17.0033 H       1  UNL1        0.0000
     31 H          19.0493   10.2415   15.6586 H       1  UNL1        0.0000
     32 H          17.5858    9.2741   15.8803 H       1  UNL1        0.0000
     33 P          16.7844    6.8432   12.0122 P.3     1  UNL1        0.0000
     34 C          17.3388    7.4682   10.3857 C.ar    1  UNL1        0.0000
     35 C          18.3703    6.9260    9.6299 C.ar    1  UNL1        0.0000
     36 H          18.9676    6.1124   10.0155 H       1  UNL1        0.0000
     37 C          18.6667    7.4461    8.3803 C.ar    1  UNL1        0.0000
     38 H          19.4739    7.0217    7.7996 H       1  UNL1        0.0000
     39 C          17.9343    8.5069    7.8762 C.ar    1  UNL1        0.0000
     40 H          18.1627    8.9049    6.8977 H       1  UNL1        0.0000
     41 C          16.9258    9.0709    8.6409 C.ar    1  UNL1        0.0000
     42 H          16.3779    9.9224    8.2639 H       1  UNL1        0.0000
     43 C          16.6238    8.5653    9.8927 C.ar    1  UNL1        0.0000
     44 C          15.8843    5.2952   11.4081 C.3     1  UNL1        0.0000
     45 H          15.4825    4.8274   12.3145 H       1  UNL1        0.0000
     46 C          16.7153    4.2570   10.6614 C.3     1  UNL1        0.0000
     47 H          16.0645    3.4363   10.3586 H       1  UNL1        0.0000
     48 H          17.5056    3.8373   11.2785 H       1  UNL1        0.0000
     49 H          17.1514    4.6842    9.7619 H       1  UNL1        0.0000
     50 C          14.7119    5.7303   10.5371 C.3     1  UNL1        0.0000
     51 H          15.0683    6.1686    9.6066 H       1  UNL1        0.0000
     52 H          14.1120    6.4756   11.0508 H       1  UNL1        0.0000
     53 H          14.0775    4.8784   10.2940 H       1  UNL1        0.0000
     54 C          18.3040    6.0655   12.7827 C.3     1  UNL1        0.0000
     55 H          18.7564    5.3281   12.1139 H       1  UNL1        0.0000
     56 C          19.3170    7.1598   13.0856 C.3     1  UNL1        0.0000
     57 H          18.8426    7.9294   13.6953 H       1  UNL1        0.0000
     58 H          19.6772    7.6212   12.1686 H       1  UNL1        0.0000
     59 H          20.1699    6.7591   13.6331 H       1  UNL1        0.0000
     60 C          17.8617    5.3868   14.0767 C.3     1  UNL1        0.0000
     61 H          18.7232    5.0283   14.6395 H       1  UNL1        0.0000
     62 H          17.2065    4.5400   13.8805 H       1  UNL1        0.0000
     63 H          17.3227    6.1022   14.7007 H       1  UNL1        0.0000
     64 P          13.6740    8.7010   13.5030 P.3     1  UNL1        0.0000
     65 C          12.8600    8.4811   11.8804 C.ar    1  UNL1        0.0000
     66 C          11.5965    7.9376   11.6866 C.ar    1  UNL1        0.0000
     67 H          11.0349    7.5374   12.5184 H       1  UNL1        0.0000
     68 C          11.0531    7.8735   10.4137 C.ar    1  UNL1        0.0000
     69 H          10.0708    7.4452   10.2700 H       1  UNL1        0.0000
     70 C          11.7645    8.3538    9.3280 C.ar    1  UNL1        0.0000
     71 H          11.3344    8.3097    8.3375 H       1  UNL1        0.0000
     72 C          13.0382    8.8668    9.5133 C.ar    1  UNL1        0.0000
     73 H          13.6094    9.2077    8.6619 H       1  UNL1        0.0000
     74 C          13.5952    8.9307   10.7781 C.ar    1  UNL1        0.0000
     75 C          12.6566   10.1714   14.1144 C.3     1  UNL1        0.0000
     76 H          13.0715   10.4146   15.0995 H       1  UNL1        0.0000
     77 C          11.1539    9.9593   14.2665 C.3     1  UNL1        0.0000
     78 H          10.6987   10.8918   14.6011 H       1  UNL1        0.0000
     79 H          10.9159    9.1961   15.0030 H       1  UNL1        0.0000
     80 H          10.7022    9.6921   13.3144 H       1  UNL1        0.0000
     81 C          12.9124   11.3523   13.1855 C.3     1  UNL1        0.0000
     82 H          12.4822   11.1664   12.2030 H       1  UNL1        0.0000
     83 H          13.9790   11.5136   13.0597 H       1  UNL1        0.0000
     84 H          12.4670   12.2612   13.5888 H       1  UNL1        0.0000
     85 C          12.9792    7.3413   14.5874 C.3     1  UNL1        0.0000
     86 H          11.8859    7.3562   14.5927 H       1  UNL1        0.0000
     87 C          13.4629    5.9977   14.0620 C.3     1  UNL1        0.0000
     88 H          14.5510    6.0100   13.9931 H       1  UNL1        0.0000
     89 H          13.0579    5.7983   13.0721 H       1  UNL1        0.0000
     90 H          13.1658    5.1892   14.7299 H       1  UNL1        0.0000
     91 C          13.5062    7.5725   16.0015 C.3     1  UNL1        0.0000
     92 H          13.2431    6.7396   16.6532 H       1  UNL1        0.0000
     93 H          13.1015    8.4853   16.4350 H       1  UNL1        0.0000
     94 H          14.5944    7.6547   15.9787 H       1  UNL1        0.0000
@<TRIPOS>BOND
     1    40    39    1
     2    38    37    1
     3    39    37   ar
     4    39    41   ar
     5    42    41    1
     6    71    70    1
     7    37    35   ar
     8    41    43   ar
     9    73    72    1
    10    70    72   ar
    11    70    68   ar
    12    11    10    1
    13    72    74   ar
    14    51    50    1
    15    35    36    1
    16    35    34   ar
    17    49    46    1
    18     9     8    1
    19    43    34   ar
    20    43     1    1
    21    69    68    1
    22    53    50    1
    23    10     8   ar
    24    10    12   ar
    25    47    46    1
    26    34    33    1
    27    68    66   ar
    28     8     6   ar
    29    50    52    1
    30    50    44    1
    31    46    48    1
    32    46    44    1
    33    20    19    1
    34    74     1    1
    35    74    65   ar
    36    22    19    1
    37     1    12    1
    38    21    19    1
    39    12     3   ar
    40    19    13    1
    41    44    33    1
    42    44    45    1
    43     6     7    1
    44     6     4   ar
    45    66    65   ar
    46    66    67    1
    47    65    64    1
    48    33    54    1
    49    55    54    1
    50    58    56    1
    51    82    81    1
    52     3     4   ar
    53     3     2    1
    54     4     5    1
    55    18    15    1
    56    16    15    1
    57    54    56    1
    58    54    60    1
    59    13    15    1
    60    13     2    1
    61    13    14    1
    62    83    81    1
    63    89    87    1
    64    15    17    1
    65    56    59    1
    66    56    57    1
    67    81    84    1
    68    81    75    1
    69    80    77    1
    70     2    23    1
    71    64    75    1
    72    64    85    1
    73    62    60    1
    74    88    87    1
    75    87    85    1
    76    87    90    1
    77    60    61    1
    78    60    63    1
    79    75    77    1
    80    75    76    1
    81    77    78    1
    82    77    79    1
    83    85    86    1
    84    85    91    1
    85    27    25    1
    86    24    23    1
    87    23    25    1
    88    23    29    1
    89    26    25    1
    90    25    28    1
    91    31    29    1
    92    32    29    1
    93    29    30    1
    94    94    91    1
    95    91    93    1
    96    91    92    1
