@<TRIPOS>MOLECULE
1,2,5,80
 93 93 0 0 0
SMALL
GASTEIGER

@<TRIPOS>ATOM
      1 P          -0.6020   12.8681   34.4901 P.3     1  UNL1        0.0000
      2 P          -4.8705   13.1184   32.7308 P.3     1  UNL1        0.0000
      3 SI         -2.4665   12.5821   37.0334 Si      1  UNL1        0.0000
      4 SI         -5.3655   12.5740   35.8209 Si      1  UNL1        0.0000
      5 N          -3.6411   12.9518   35.7627 N.pl3   1  UNL1        0.0000
      6 C          -2.3024   13.9898   38.3134 C.3     1  UNL1        0.0000
      7 H          -3.2077   14.0563   38.9094 H       1  UNL1        0.0000
      8 H          -2.1281   14.9620   37.8669 H       1  UNL1        0.0000
      9 H          -1.4843   13.7825   38.9967 H       1  UNL1        0.0000
     10 C          -2.9635   11.0393   38.0352 C.3     1  UNL1        0.0000
     11 H          -3.0958   10.1494   37.4323 H       1  UNL1        0.0000
     12 H          -3.8758   11.2038   38.5941 H       1  UNL1        0.0000
     13 H          -2.1782   10.8314   38.7537 H       1  UNL1        0.0000
     14 C          -0.8227   12.1185   36.1692 C.3     1  UNL1        0.0000
     15 H          -0.8481   11.0382   36.0232 H       1  UNL1        0.0000
     16 H           0.0400   12.3330   36.7974 H       1  UNL1        0.0000
     17 C           0.6608   14.2433   34.8175 C.3     1  UNL1        0.0000
     18 C           0.8212   15.0707   33.5407 C.3     1  UNL1        0.0000
     19 H           1.2643   16.0374   33.7758 H       1  UNL1        0.0000
     20 H          -0.1464   15.2452   33.0758 H       1  UNL1        0.0000
     21 H           1.4604   14.5763   32.8155 H       1  UNL1        0.0000
     22 C           0.0093   15.1263   35.8850 C.3     1  UNL1        0.0000
     23 H           0.5374   16.0758   35.9595 H       1  UNL1        0.0000
     24 H           0.0352   14.6484   36.8610 H       1  UNL1        0.0000
     25 H          -1.0250   15.3352   35.6163 H       1  UNL1        0.0000
     26 C           2.0324   13.7906   35.3128 C.3     1  UNL1        0.0000
     27 H           2.5990   14.6672   35.6270 H       1  UNL1        0.0000
     28 H           2.5990   13.2990   34.5264 H       1  UNL1        0.0000
     29 H           1.9580   13.1208   36.1677 H       1  UNL1        0.0000
     30 C           0.2594   11.4325   33.5770 C.3     1  UNL1        0.0000
     31 C          -0.9172   10.5384   33.1678 C.3     1  UNL1        0.0000
     32 H          -0.5727    9.6893   32.5775 H       1  UNL1        0.0000
     33 H          -1.6138   11.1171   32.5496 H       1  UNL1        0.0000
     34 H          -1.4469   10.1498   34.0398 H       1  UNL1        0.0000
     35 C           0.9203   11.9549   32.3013 C.3     1  UNL1        0.0000
     36 H           1.1200   11.1269   31.6205 H       1  UNL1        0.0000
     37 H           1.8681   12.4412   32.5173 H       1  UNL1        0.0000
     38 H           0.2655   12.6628   31.7927 H       1  UNL1        0.0000
     39 C           1.2671   10.5992   34.3694 C.3     1  UNL1        0.0000
     40 H           1.6666    9.8238   33.7150 H       1  UNL1        0.0000
     41 H           0.8129   10.1033   35.2240 H       1  UNL1        0.0000
     42 H           2.1005   11.1963   34.7231 H       1  UNL1        0.0000
     43 C          -6.2700   13.5968   37.1605 C.3     1  UNL1        0.0000
     44 H          -5.7661   13.5172   38.1185 H       1  UNL1        0.0000
     45 H          -7.2782   13.2167   37.2918 H       1  UNL1        0.0000
     46 H          -6.3488   14.6501   36.9123 H       1  UNL1        0.0000
     47 C          -5.7084   10.7501   36.2691 C.3     1  UNL1        0.0000
     48 H          -4.9424   10.0557   35.9479 H       1  UNL1        0.0000
     49 H          -6.6513   10.4347   35.8342 H       1  UNL1        0.0000
     50 H          -5.8117   10.6543   37.3430 H       1  UNL1        0.0000
     51 C          -6.0862   13.0783   34.1239 C.3     1  UNL1        0.0000
     52 H          -6.9546   12.4807   33.8500 H       1  UNL1        0.0000
     53 H          -6.4223   14.1097   34.2315 H       1  UNL1        0.0000
     54 C          -5.0831   11.4096   31.9231 C.3     1  UNL1        0.0000
     55 C          -6.4675   11.0506   31.3909 C.3     1  UNL1        0.0000
     56 H          -6.4711   10.0018   31.0919 H       1  UNL1        0.0000
     57 H          -6.7252   11.6434   30.5172 H       1  UNL1        0.0000
     58 H          -7.2405   11.1820   32.1461 H       1  UNL1        0.0000
     59 C          -4.7129   10.4363   33.0477 C.3     1  UNL1        0.0000
     60 H          -4.4316    9.4636   32.6446 H       1  UNL1        0.0000
     61 H          -5.5534   10.2954   33.7195 H       1  UNL1        0.0000
     62 H          -3.8661   10.8285   33.6262 H       1  UNL1        0.0000
     63 C          -4.0540   11.2720   30.7962 C.3     1  UNL1        0.0000
     64 H          -3.8447   10.2202   30.5994 H       1  UNL1        0.0000
     65 H          -3.1159   11.7658   31.0597 H       1  UNL1        0.0000
     66 H          -4.4082   11.7169   29.8714 H       1  UNL1        0.0000
     67 C          -5.6714   14.4330   31.6223 C.3     1  UNL1        0.0000
     68 C          -7.2016   14.4423   31.6169 C.3     1  UNL1        0.0000
     69 H          -7.5403   15.1637   30.8735 H       1  UNL1        0.0000
     70 H          -7.6090   14.7482   32.5771 H       1  UNL1        0.0000
     71 H          -7.6186   13.4745   31.3560 H       1  UNL1        0.0000
     72 C          -5.1561   15.7538   32.1983 C.3     1  UNL1        0.0000
     73 H          -5.6113   16.6000   31.6859 H       1  UNL1        0.0000
     74 H          -4.0779   15.8123   32.0685 H       1  UNL1        0.0000
     75 H          -5.3706   15.8429   33.2630 H       1  UNL1        0.0000
     76 C          -5.1567   14.3107   30.1882 C.3     1  UNL1        0.0000
     77 H          -5.3710   15.2310   29.6454 H       1  UNL1        0.0000
     78 H          -5.6382   13.4929   29.6573 H       1  UNL1        0.0000
     79 H          -4.0786   14.1626   30.1835 H       1  UNL1        0.0000
     80 C          -3.3692   14.2113   35.1366 C.2     1  UNL1        0.0000
     81 C          -3.6722   15.3963   35.6791 C.2     1  UNL1        0.0000
     82 H          -4.1754   15.4201   36.6413 H       1  UNL1        0.0000
     83 C          -3.3496   16.6898   35.1155 C.ar    1  UNL1        0.0000
     84 C          -2.5730   16.8059   33.9600 C.ar    1  UNL1        0.0000
     85 H          -2.2381   15.8941   33.4814 H       1  UNL1        0.0000
     86 C          -2.2484   18.0426   33.4457 C.ar    1  UNL1        0.0000
     87 H          -1.6467   18.1099   32.5509 H       1  UNL1        0.0000
     88 C          -2.6914   19.1978   34.0730 C.ar    1  UNL1        0.0000
     89 H          -2.4378   20.1681   33.6711 H       1  UNL1        0.0000
     90 C          -3.4610   19.0997   35.2205 C.ar    1  UNL1        0.0000
     91 H          -3.8089   19.9963   35.7151 H       1  UNL1        0.0000
     92 C          -3.7850   17.8611   35.7391 C.ar    1  UNL1        0.0000
     93 H          -4.3837   17.7943   36.6384 H       1  UNL1        0.0000
@<TRIPOS>BOND
     1    77    76    1
     2    78    76    1
     3    66    63    1
     4    79    76    1
     5    76    67    1
     6    57    55    1
     7    64    63    1
     8    63    65    1
     9    63    54    1
    10    69    68    1
    11    56    55    1
    12    71    68    1
    13    55    54    1
    14    55    58    1
    15    68    67    1
    16    68    70    1
    17    36    35    1
    18    67    72    1
    19    67     2    1
    20    73    72    1
    21    38    35    1
    22    54     2    1
    23    54    59    1
    24    74    72    1
    25    72    75    1
    26    35    37    1
    27    35    30    1
    28    33    31    1
    29    87    86    1
    30    32    31    1
    31    60    59    1
    32     2    51    1
    33    21    18    1
    34    59    62    1
    35    59    61    1
    36    20    18    1
    37    31    30    1
    38    31    34    1
    39    86    84   ar
    40    86    88   ar
    41    85    84    1
    42    18    19    1
    43    18    17    1
    44    30    39    1
    45    30     1    1
    46    89    88    1
    47    40    39    1
    48    52    51    1
    49    84    83   ar
    50    88    90   ar
    51    51    53    1
    52    51     4    1
    53    39    42    1
    54    39    41    1
    55     1    17    1
    56     1    14    1
    57    28    26    1
    58    17    26    1
    59    17    22    1
    60    83    81    1
    61    83    92   ar
    62    80    81    2
    63    80     5    1
    64    90    91    1
    65    90    92   ar
    66    26    27    1
    67    26    29    1
    68    25    22    1
    69    81    82    1
    70    92    93    1
    71     5     4    1
    72     5     3    1
    73     4    47    1
    74     4    43    1
    75    49    47    1
    76    22    23    1
    77    22    24    1
    78    48    47    1
    79    15    14    1
    80    14    16    1
    81    14     3    1
    82    47    50    1
    83    46    43    1
    84     3    10    1
    85     3     6    1
    86    43    45    1
    87    43    44    1
    88    11    10    1
    89     8     6    1
    90    10    12    1
    91    10    13    1
    92     6     7    1
    93     6     9    1
