@<TRIPOS>MOLECULE
1,2,5,19
 79 78 0 0 0
SMALL
GASTEIGER

@<TRIPOS>ATOM
      1 P           3.2522    2.8104    0.3550 P.3     1  UNL1        0.0000
      2 P           1.5132    2.5217    4.6662 P.3     1  UNL1        0.0000
      3 SI          3.4047   -0.1518    1.1441 Si      1  UNL1        0.0000
      4 SI          2.9524   -0.2579    4.2458 Si      1  UNL1        0.0000
      5 N           3.2402    0.6598    2.7320 N.3     1  UNL1        0.0000
      6 H           4.1143    1.1665    2.8875 H       1  UNL1        0.0000
      7 C           1.6765   -0.6463    0.5210 C.3     1  UNL1        0.0000
      8 H           1.2051   -1.3826    1.1629 H       1  UNL1        0.0000
      9 H           1.7561   -1.0916   -0.4662 H       1  UNL1        0.0000
     10 H           1.0076    0.2070    0.4377 H       1  UNL1        0.0000
     11 C           4.6063   -1.6149    1.2398 C.3     1  UNL1        0.0000
     12 H           4.2167   -2.4066    1.8684 H       1  UNL1        0.0000
     13 H           5.5800   -1.3327    1.6280 H       1  UNL1        0.0000
     14 H           4.7608   -2.0348    0.2524 H       1  UNL1        0.0000
     15 C           4.1525    1.2280    0.0507 C.3     1  UNL1        0.0000
     16 H           5.2106    1.3622    0.2628 H       1  UNL1        0.0000
     17 H           4.0725    0.9587   -0.9987 H       1  UNL1        0.0000
     18 C           4.5362    3.9754    1.1467 C.3     1  UNL1        0.0000
     19 C           4.1208    3.6995    2.6017 C.3     1  UNL1        0.0000
     20 H           4.0591    4.6316    3.1742 H       1  UNL1        0.0000
     21 H           4.8479    3.0424    3.1024 H       1  UNL1        0.0000
     22 C           6.0066    3.6711    0.8626 C.3     1  UNL1        0.0000
     23 H           6.6215    4.4545    1.3029 H       1  UNL1        0.0000
     24 H           6.2046    3.6521   -0.2075 H       1  UNL1        0.0000
     25 H           6.3285    2.7264    1.2978 H       1  UNL1        0.0000
     26 C           4.2647    5.4407    0.8052 C.3     1  UNL1        0.0000
     27 H           4.8645    6.0755    1.4564 H       1  UNL1        0.0000
     28 H           3.2190    5.6963    0.9636 H       1  UNL1        0.0000
     29 H           4.5422    5.6681   -0.2209 H       1  UNL1        0.0000
     30 C           2.6716    3.3275   -1.3673 C.3     1  UNL1        0.0000
     31 C           3.8450    3.4899   -2.3277 C.3     1  UNL1        0.0000
     32 H           3.4695    3.7498   -3.3158 H       1  UNL1        0.0000
     33 H           4.4244    2.5740   -2.4222 H       1  UNL1        0.0000
     34 H           4.5095    4.2866   -2.0026 H       1  UNL1        0.0000
     35 C           1.8547    4.6185   -1.2905 C.3     1  UNL1        0.0000
     36 H           1.2979    4.7472   -2.2171 H       1  UNL1        0.0000
     37 H           2.4816    5.4936   -1.1619 H       1  UNL1        0.0000
     38 H           1.1354    4.5789   -0.4723 H       1  UNL1        0.0000
     39 C           1.7272    2.2148   -1.8341 C.3     1  UNL1        0.0000
     40 H           1.3227    2.4681   -2.8122 H       1  UNL1        0.0000
     41 H           0.8906    2.1181   -1.1414 H       1  UNL1        0.0000
     42 H           2.2225    1.2510   -1.9218 H       1  UNL1        0.0000
     43 C           4.6510   -0.8122    4.8982 C.3     1  UNL1        0.0000
     44 H           5.1034   -1.5526    4.2475 H       1  UNL1        0.0000
     45 H           4.5477   -1.2690    5.8766 H       1  UNL1        0.0000
     46 H           5.3541    0.0106    5.0002 H       1  UNL1        0.0000
     47 C           1.8336   -1.7752    4.0017 C.3     1  UNL1        0.0000
     48 H           2.2526   -2.4445    3.2586 H       1  UNL1        0.0000
     49 H           0.8098   -1.5620    3.7138 H       1  UNL1        0.0000
     50 H           1.7942   -2.3239    4.9375 H       1  UNL1        0.0000
     51 C           2.2428    1.0348    5.4693 C.3     1  UNL1        0.0000
     52 H           1.5330    0.6001    6.1698 H       1  UNL1        0.0000
     53 H           3.0852    1.3998    6.0550 H       1  UNL1        0.0000
     54 C          -0.2807    2.0005    4.3144 C.3     1  UNL1        0.0000
     55 C          -1.1923    3.2204    4.1700 C.3     1  UNL1        0.0000
     56 H          -2.1469    2.9127    3.7439 H       1  UNL1        0.0000
     57 H          -0.7572    3.9678    3.5061 H       1  UNL1        0.0000
     58 H          -1.3988    3.6787    5.1330 H       1  UNL1        0.0000
     59 C          -0.8972    1.0222    5.3123 C.3     1  UNL1        0.0000
     60 H          -1.9392    0.8504    5.0460 H       1  UNL1        0.0000
     61 H          -0.8768    1.4186    6.3237 H       1  UNL1        0.0000
     62 H          -0.3910    0.0598    5.3006 H       1  UNL1        0.0000
     63 C          -0.1697    1.3219    2.9372 C.3     1  UNL1        0.0000
     64 H          -1.1575    1.0233    2.5842 H       1  UNL1        0.0000
     65 H           0.4542    0.4301    2.9929 H       1  UNL1        0.0000
     66 H           0.2495    2.0217    2.1751 H       1  UNL1        0.0000
     67 C           1.6475    3.8312    6.0218 C.3     1  UNL1        0.0000
     68 C           0.8092    3.5087    7.2545 C.3     1  UNL1        0.0000
     69 H           1.0343    4.2300    8.0383 H       1  UNL1        0.0000
     70 H           1.0352    2.5164    7.6403 H       1  UNL1        0.0000
     71 H          -0.2547    3.5733    7.0429 H       1  UNL1        0.0000
     72 C           3.1332    3.9030    6.4017 C.3     1  UNL1        0.0000
     73 H           3.3416    4.8600    6.8751 H       1  UNL1        0.0000
     74 H           3.7610    3.8243    5.5127 H       1  UNL1        0.0000
     75 H           3.4133    3.1259    7.1088 H       1  UNL1        0.0000
     76 C           1.2574    5.1893    5.4370 C.3     1  UNL1        0.0000
     77 H           1.4313    5.9678    6.1774 H       1  UNL1        0.0000
     78 H           0.2118    5.2349    5.1525 H       1  UNL1        0.0000
     79 H           1.8670    5.4132    4.5620 H       1  UNL1        0.0000
@<TRIPOS>BOND
     1    32    31    1
     2    40    39    1
     3    33    31    1
     4    31    34    1
     5    31    30    1
     6    36    35    1
     7    42    39    1
     8    39    30    1
     9    39    41    1
    10    30    35    1
    11    30     1    1
    12    35    37    1
    13    35    38    1
    14    17    15    1
    15     9     7    1
    16    29    26    1
    17    24    22    1
    18    15    16    1
    19    15     1    1
    20    15     3    1
    21    14    11    1
    22     1    18    1
    23    10     7    1
    24     7     3    1
    25     7     8    1
    26    26    28    1
    27    26    18    1
    28    26    27    1
    29    22    18    1
    30    22    25    1
    31    22    23    1
    32     3    11    1
    33     3     5    1
    34    18    19    1
    35    11    13    1
    36    11    12    1
    37    66    63    1
    38    64    63    1
    39    19    21    1
    40    19    20    1
    41     5     6    1
    42     5     4    1
    43    63    65    1
    44    63    54    1
    45    48    47    1
    46    57    55    1
    47    49    47    1
    48    56    55    1
    49    47     4    1
    50    47    50    1
    51    55    54    1
    52    55    58    1
    53     4    43    1
    54     4    51    1
    55    44    43    1
    56    54     2    1
    57    54    59    1
    58    79    76    1
    59     2    51    1
    60     2    67    1
    61    43    46    1
    62    43    45    1
    63    60    59    1
    64    78    76    1
    65    62    59    1
    66    59    61    1
    67    76    67    1
    68    76    77    1
    69    51    53    1
    70    51    52    1
    71    74    72    1
    72    67    72    1
    73    67    68    1
    74    72    73    1
    75    72    75    1
    76    71    68    1
    77    68    70    1
    78    68    69    1
