@<TRIPOS>MOLECULE
1,2,3,4
 82 84 0 0 0
SMALL
GASTEIGER

@<TRIPOS>ATOM
      1 SI         -0.7940    3.6275   12.6450 Si      1  UNL1        0.0000
      2 S          -0.6210    2.9794   15.9801 S.3     1  UNL1        0.0000
      3 S           2.3686    2.6434   13.6731 S.3     1  UNL1        0.0000
      4 S           0.5064    0.8087   11.6956 S.3     1  UNL1        0.0000
      5 C          -2.4529    4.2725   13.3432 C.ar    1  UNL1        0.0000
      6 C          -2.5435    4.6564   14.6828 C.ar    1  UNL1        0.0000
      7 C          -3.7514    5.1204   15.1913 C.ar    1  UNL1        0.0000
      8 H          -3.8134    5.4533   16.2192 H       1  UNL1        0.0000
      9 C          -4.8790    5.1797   14.3918 C.ar    1  UNL1        0.0000
     10 H          -5.8106    5.5433   14.8001 H       1  UNL1        0.0000
     11 C          -4.8032    4.7723   13.0712 C.ar    1  UNL1        0.0000
     12 H          -5.6800    4.8114   12.4413 H       1  UNL1        0.0000
     13 C          -3.5976    4.3263   12.5601 C.ar    1  UNL1        0.0000
     14 H          -3.5337    4.0239   11.5254 H       1  UNL1        0.0000
     15 C          -1.3401    4.6303   15.5664 C.3     1  UNL1        0.0000
     16 H          -1.5406    5.1135   16.5210 H       1  UNL1        0.0000
     17 H          -0.5069    5.1414   15.0847 H       1  UNL1        0.0000
     18 C          -1.9199    2.1589   17.0600 C.3     1  UNL1        0.0000
     19 C          -3.1048    1.6878   16.2371 C.3     1  UNL1        0.0000
     20 H          -3.5566    2.5068   15.6834 H       1  UNL1        0.0000
     21 H          -3.8556    1.2592   16.8991 H       1  UNL1        0.0000
     22 H          -2.7882    0.9254   15.5306 H       1  UNL1        0.0000
     23 C          -2.3524    3.1538   18.1299 C.3     1  UNL1        0.0000
     24 H          -3.0186    3.9103   17.7258 H       1  UNL1        0.0000
     25 H          -1.4909    3.6362   18.5873 H       1  UNL1        0.0000
     26 H          -2.8912    2.6179   18.9093 H       1  UNL1        0.0000
     27 C          -1.1966    0.9853   17.7066 C.3     1  UNL1        0.0000
     28 H          -0.4092    1.3375   18.3696 H       1  UNL1        0.0000
     29 H          -0.7440    0.3489   16.9502 H       1  UNL1        0.0000
     30 H          -1.8997    0.3892   18.2841 H       1  UNL1        0.0000
     31 C           0.3389    5.1861   12.7050 C.ar    1  UNL1        0.0000
     32 C           1.7170    5.1245   12.4901 C.ar    1  UNL1        0.0000
     33 C           2.4750    6.2914   12.4749 C.ar    1  UNL1        0.0000
     34 H           3.5388    6.2364   12.2829 H       1  UNL1        0.0000
     35 C           1.8873    7.5243   12.6883 C.ar    1  UNL1        0.0000
     36 H           2.4893    8.4210   12.6725 H       1  UNL1        0.0000
     37 C           0.5247    7.5959   12.9193 C.ar    1  UNL1        0.0000
     38 H           0.0510    8.5521   13.0885 H       1  UNL1        0.0000
     39 C          -0.2310    6.4377   12.9201 C.ar    1  UNL1        0.0000
     40 H          -1.2971    6.5038   13.0845 H       1  UNL1        0.0000
     41 C           2.4038    3.8199   12.2624 C.3     1  UNL1        0.0000
     42 H           3.4498    3.9636   11.9925 H       1  UNL1        0.0000
     43 H           1.9094    3.2573   11.4679 H       1  UNL1        0.0000
     44 C           3.3179    3.4444   15.0565 C.3     1  UNL1        0.0000
     45 C           4.6667    3.9096   14.5237 C.3     1  UNL1        0.0000
     46 H           5.1497    3.1192   13.9518 H       1  UNL1        0.0000
     47 H           5.3148    4.1698   15.3595 H       1  UNL1        0.0000
     48 H           4.5604    4.7904   13.8951 H       1  UNL1        0.0000
     49 C           2.5444    4.5993   15.6742 C.3     1  UNL1        0.0000
     50 H           1.6133    4.2420   16.1079 H       1  UNL1        0.0000
     51 H           2.3206    5.3692   14.9392 H       1  UNL1        0.0000
     52 H           3.1402    5.0491   16.4680 H       1  UNL1        0.0000
     53 C           3.5061    2.3212   16.0711 C.3     1  UNL1        0.0000
     54 H           4.1269    1.5301   15.6554 H       1  UNL1        0.0000
     55 H           2.5489    1.8828   16.3454 H       1  UNL1        0.0000
     56 H           3.9826    2.7044   16.9717 H       1  UNL1        0.0000
     57 C          -1.0442    3.5241   10.7418 C.ar    1  UNL1        0.0000
     58 C          -1.1046    2.3131   10.0516 C.ar    1  UNL1        0.0000
     59 C          -1.1990    2.3048    8.6646 C.ar    1  UNL1        0.0000
     60 H          -1.2334    1.3613    8.1366 H       1  UNL1        0.0000
     61 C          -1.2610    3.4868    7.9495 C.ar    1  UNL1        0.0000
     62 H          -1.3395    3.4645    6.8724 H       1  UNL1        0.0000
     63 C          -1.2229    4.6930    8.6259 C.ar    1  UNL1        0.0000
     64 H          -1.2765    5.6243    8.0809 H       1  UNL1        0.0000
     65 C          -1.1082    4.7009   10.0041 C.ar    1  UNL1        0.0000
     66 H          -1.0692    5.6469   10.5233 H       1  UNL1        0.0000
     67 C          -1.0824    1.0033   10.7738 C.3     1  UNL1        0.0000
     68 H          -1.1411    0.1852   10.0610 H       1  UNL1        0.0000
     69 H          -1.8907    0.9352   11.4977 H       1  UNL1        0.0000
     70 C           0.7962   -1.0457   11.6953 C.3     1  UNL1        0.0000
     71 C           2.1566   -1.2047   12.3607 C.3     1  UNL1        0.0000
     72 H           2.9205   -0.6556   11.8134 H       1  UNL1        0.0000
     73 H           2.4337   -2.2564   12.3905 H       1  UNL1        0.0000
     74 H           2.1195   -0.8354   13.3829 H       1  UNL1        0.0000
     75 C           0.8653   -1.5140   10.2457 C.3     1  UNL1        0.0000
     76 H          -0.1196   -1.5835    9.7900 H       1  UNL1        0.0000
     77 H           1.3102   -2.5069   10.2160 H       1  UNL1        0.0000
     78 H           1.4844   -0.8451    9.6514 H       1  UNL1        0.0000
     79 C          -0.2920   -1.7547   12.4765 C.3     1  UNL1        0.0000
     80 H          -1.2734   -1.5835   12.0393 H       1  UNL1        0.0000
     81 H          -0.2970   -1.4004   13.5044 H       1  UNL1        0.0000
     82 H          -0.0975   -2.8258   12.4828 H       1  UNL1        0.0000
@<TRIPOS>BOND
     1    62    61    1
     2    61    63   ar
     3    61    59   ar
     4    64    63    1
     5    60    59    1
     6    63    65   ar
     7    59    58   ar
     8    78    75    1
     9    76    75    1
    10    65    66    1
    11    65    57   ar
    12    58    57   ar
    13    58    67    1
    14    68    67    1
    15    77    75    1
    16    75    70    1
    17    57     1    1
    18    67    69    1
    19    67     4    1
    20    43    41    1
    21    14    13    1
    22    70     4    1
    23    70    71    1
    24    70    79    1
    25    72    71    1
    26    42    41    1
    27    80    79    1
    28    41    32    1
    29    41     3    1
    30    34    33    1
    31    71    73    1
    32    71    74    1
    33    12    11    1
    34    33    32   ar
    35    33    35   ar
    36    79    82    1
    37    79    81    1
    38    32    31   ar
    39    13    11   ar
    40    13     5   ar
    41     1    31    1
    42     1     5    1
    43    36    35    1
    44    35    37   ar
    45    31    39   ar
    46    37    39   ar
    47    37    38    1
    48    39    40    1
    49    11     9   ar
    50     5     6   ar
    51     3    44    1
    52    48    45    1
    53    46    45    1
    54     9    10    1
    55     9     7   ar
    56    45    44    1
    57    45    47    1
    58     6     7   ar
    59     6    15    1
    60    51    49    1
    61    44    49    1
    62    44    53    1
    63    17    15    1
    64     7     8    1
    65    22    19    1
    66    15     2    1
    67    15    16    1
    68    54    53    1
    69    49    50    1
    70    49    52    1
    71    20    19    1
    72     2    18    1
    73    53    55    1
    74    53    56    1
    75    19    21    1
    76    19    18    1
    77    29    27    1
    78    18    27    1
    79    18    23    1
    80    27    30    1
    81    27    28    1
    82    24    23    1
    83    23    25    1
    84    23    26    1
