@<TRIPOS>MOLECULE
1,2
 23 22 0 0 0
SMALL
GASTEIGER

@<TRIPOS>ATOM
      1 SI          0.7251    2.7766   -1.1497 Si      1  UNL1        0.0000
      2 SI          3.2993    3.9341   -0.8966 Si      1  UNL1        0.0000
      3 O           1.7623    4.0886   -1.8337 O.3     1  UNL1        0.0000
      4 C           1.5651    4.7930   -3.0374 C.3     1  UNL1        0.0000
      5 H           1.9079    4.1991   -3.8860 H       1  UNL1        0.0000
      6 H           2.1233    5.7265   -3.0021 H       1  UNL1        0.0000
      7 H           0.5058    5.0126   -3.1559 H       1  UNL1        0.0000
      8 C          -0.9679    3.6854   -1.0245 C.3     1  UNL1        0.0000
      9 H          -1.6840    3.0552   -0.5078 H       1  UNL1        0.0000
     10 H          -1.3898    3.9099   -2.0009 H       1  UNL1        0.0000
     11 H          -0.8930    4.6174   -0.4712 H       1  UNL1        0.0000
     12 C           0.5186    1.6268   -2.6729 C.3     1  UNL1        0.0000
     13 H          -0.1250    0.7904   -2.4234 H       1  UNL1        0.0000
     14 H           1.4751    1.2140   -2.9820 H       1  UNL1        0.0000
     15 H           0.0773    2.1365   -3.5260 H       1  UNL1        0.0000
     16 C           3.7061    5.7848   -0.5575 C.3     1  UNL1        0.0000
     17 H           4.5418    5.8549    0.1307 H       1  UNL1        0.0000
     18 H           2.8691    6.3132   -0.1102 H       1  UNL1        0.0000
     19 H           3.9933    6.3175   -1.4605 H       1  UNL1        0.0000
     20 C           4.5320    3.4324   -2.2802 C.3     1  UNL1        0.0000
     21 H           5.5302    3.3285   -1.8691 H       1  UNL1        0.0000
     22 H           4.5827    4.1641   -3.0828 H       1  UNL1        0.0000
     23 H           4.2622    2.4727   -2.7127 H       1  UNL1        0.0000
@<TRIPOS>BOND
     1     5     4    1
     2    15    12    1
     3     7     4    1
     4    22    20    1
     5     4     6    1
     6     4     3    1
     7    14    12    1
     8    23    20    1
     9    12    13    1
    10    12     1    1
    11    20    21    1
    12    20     2    1
    13    10     8    1
    14     3     2    1
    15    19    16    1
    16     1     8    1
    17     8     9    1
    18     8    11    1
    19     2    16    1
    20    16    18    1
    21    16    17    1
    22     1     3    0
