@<TRIPOS>MOLECULE
1,2
 23 22 0 0 0
SMALL
GASTEIGER

@<TRIPOS>ATOM
      1 SI          1.6164    2.3874   10.3410 Si      1  UNL1        0.0000
      2 SI         -1.1432    3.3100   10.1741 Si      1  UNL1        0.0000
      3 O           0.0145    2.3622   11.2377 O.3     1  UNL1        0.0000
      4 C          -0.2463    1.8141   12.5074 C.3     1  UNL1        0.0000
      5 C           1.9772    0.4902   10.2986 C.3     1  UNL1        0.0000
      6 C           2.7597    3.0498   11.7446 C.3     1  UNL1        0.0000
      7 C          -2.5620    2.0078   10.0230 C.3     1  UNL1        0.0000
      8 C          -1.8056    4.5751   11.4690 C.3     1  UNL1        0.0000
      9 H          -1.2873    1.5003   12.5580 H       1  UNL1        0.0000
     10 H          -0.0533    2.5538   13.2868 H       1  UNL1        0.0000
     11 H           0.3944    0.9487   12.6652 H       1  UNL1        0.0000
     12 H           2.2979    0.1027   11.2628 H       1  UNL1        0.0000
     13 H           2.7678    0.2777    9.5867 H       1  UNL1        0.0000
     14 H           1.1042   -0.0741    9.9809 H       1  UNL1        0.0000
     15 H           3.7965    3.0077   11.4303 H       1  UNL1        0.0000
     16 H           2.6685    2.4616   12.6544 H       1  UNL1        0.0000
     17 H           2.5366    4.0837   11.9924 H       1  UNL1        0.0000
     18 H          -3.1544    1.9259   10.9313 H       1  UNL1        0.0000
     19 H          -3.2380    2.2856    9.2213 H       1  UNL1        0.0000
     20 H          -2.1732    1.0216    9.7827 H       1  UNL1        0.0000
     21 H          -1.0347    5.2741   11.7807 H       1  UNL1        0.0000
     22 H          -2.1886    4.0822   12.3591 H       1  UNL1        0.0000
     23 H          -2.6160    5.1547   11.0418 H       1  UNL1        0.0000
@<TRIPOS>BOND
     1    19     7    1
     2    13     5    1
     3    20     7    1
     4    14     5    1
     5     7     2    1
     6     7    18    1
     7     2     3    1
     8     2     8    1
     9     5     1    1
    10     5    12    1
    11     1     6    1
    12    23     8    1
    13     3     4    1
    14    15     6    1
    15     8    21    1
    16     8    22    1
    17     6    17    1
    18     6    16    1
    19     4     9    1
    20     4    11    1
    21     4    10    1
    22     1     3    0
