@<TRIPOS>MOLECULE
3,4,5,7,8
 93 98 0 0 0
SMALL
GASTEIGER

@<TRIPOS>ATOM
      1 SI         15.6242   11.8257    5.8087 Si      1  UNL1        0.0000
      2 SI         15.8016    7.4288    3.9643 Si      1  UNL1        0.0000
      3 N          14.8631    9.7723    8.8591 N.pl3   1  UNL1        0.0000
      4 N          14.7610   11.1591    7.1354 N.3     1  UNL1        0.0000
      5 N          15.9275   10.2419    5.0609 N.3     1  UNL1        0.0000
      6 N          17.0958    8.6660    3.8532 N.pl3   1  UNL1        0.0000
      7 N          15.6535    7.2792    5.6542 N.3     1  UNL1        0.0000
      8 N          14.6063    7.0722    7.5952 N.pl3   1  UNL1        0.0000
      9 C          14.9629    9.3815   10.1915 C.ar    1  UNL1        0.0000
     10 C          15.6603    8.2050   10.4829 C.ar    1  UNL1        0.0000
     11 H          16.1648    7.6835    9.6744 H       1  UNL1        0.0000
     12 C          15.7108    7.7355   11.7799 C.ar    1  UNL1        0.0000
     13 H          16.2504    6.8259   11.9992 H       1  UNL1        0.0000
     14 C          15.0734    8.4242   12.8007 C.ar    1  UNL1        0.0000
     15 H          15.1107    8.0502   13.8128 H       1  UNL1        0.0000
     16 C          14.3877    9.5933   12.5173 C.ar    1  UNL1        0.0000
     17 H          13.8897   10.1335   13.3094 H       1  UNL1        0.0000
     18 C          14.3284   10.0748   11.2234 C.ar    1  UNL1        0.0000
     19 H          13.7796   10.9778   10.9954 H       1  UNL1        0.0000
     20 C          15.0485   11.0053    8.4147 C.3     1  UNL1        0.0000
     21 C          15.6029   12.1032    9.2351 C.ar    1  UNL1        0.0000
     22 C          15.0279   13.3686    9.1869 C.ar    1  UNL1        0.0000
     23 H          14.1578   13.5246    8.5658 H       1  UNL1        0.0000
     24 C          15.5653   14.4003    9.9346 C.ar    1  UNL1        0.0000
     25 H          15.1109   15.3799    9.9053 H       1  UNL1        0.0000
     26 C          16.6869   14.1783   10.7172 C.ar    1  UNL1        0.0000
     27 H          17.1062   14.9858   11.2993 H       1  UNL1        0.0000
     28 C          17.2747   12.9239   10.7481 C.ar    1  UNL1        0.0000
     29 H          18.1567   12.7553   11.3476 H       1  UNL1        0.0000
     30 C          16.7356   11.8835   10.0138 C.ar    1  UNL1        0.0000
     31 H          17.1982   10.9067   10.0173 H       1  UNL1        0.0000
     32 C          14.4173   12.7615    4.6649 C.3     1  UNL1        0.0000
     33 H          14.8757   12.9851    3.7081 H       1  UNL1        0.0000
     34 H          14.1131   13.7002    5.1126 H       1  UNL1        0.0000
     35 H          13.5240   12.1700    4.4868 H       1  UNL1        0.0000
     36 C          17.1366   12.8844    6.3106 C.3     1  UNL1        0.0000
     37 H          17.6490   13.3020    5.4512 H       1  UNL1        0.0000
     38 H          17.8509   12.2905    6.8746 H       1  UNL1        0.0000
     39 H          16.8197   13.7081    6.9428 H       1  UNL1        0.0000
     40 C          16.9606    9.8968    4.3695 C.3     1  UNL1        0.0000
     41 C          18.0629   10.8459    4.0572 C.ar    1  UNL1        0.0000
     42 C          17.9316   11.7255    2.9909 C.ar    1  UNL1        0.0000
     43 H          17.0249   11.7195    2.4035 H       1  UNL1        0.0000
     44 C          18.9599   12.6003    2.6871 C.ar    1  UNL1        0.0000
     45 H          18.8577   13.2822    1.8558 H       1  UNL1        0.0000
     46 C          20.1179   12.5992    3.4464 C.ar    1  UNL1        0.0000
     47 H          20.9207   13.2803    3.2057 H       1  UNL1        0.0000
     48 C          20.2438   11.7280    4.5160 C.ar    1  UNL1        0.0000
     49 H          21.1433   11.7323    5.1129 H       1  UNL1        0.0000
     50 C          19.2213   10.8489    4.8246 C.ar    1  UNL1        0.0000
     51 H          19.3011   10.1772    5.6662 H       1  UNL1        0.0000
     52 C          18.3246    8.3325    3.2280 C.ar    1  UNL1        0.0000
     53 C          18.5300    8.5965    1.8822 C.ar    1  UNL1        0.0000
     54 H          17.7490    9.0744    1.3102 H       1  UNL1        0.0000
     55 C          19.7309    8.2485    1.2893 C.ar    1  UNL1        0.0000
     56 H          19.8921    8.4575    0.2422 H       1  UNL1        0.0000
     57 C          20.7223    7.6339    2.0349 C.ar    1  UNL1        0.0000
     58 H          21.6587    7.3650    1.5695 H       1  UNL1        0.0000
     59 C          20.5116    7.3634    3.3771 C.ar    1  UNL1        0.0000
     60 H          21.2836    6.8829    3.9592 H       1  UNL1        0.0000
     61 C          19.3140    7.7094    3.9757 C.ar    1  UNL1        0.0000
     62 H          19.1289    7.5147    5.0219 H       1  UNL1        0.0000
     63 C          14.2940    8.1380    3.0261 C.3     1  UNL1        0.0000
     64 H          14.1097    9.1699    3.3220 H       1  UNL1        0.0000
     65 H          13.3933    7.5776    3.2609 H       1  UNL1        0.0000
     66 H          14.4351    8.1091    1.9489 H       1  UNL1        0.0000
     67 C          16.4973    5.9103    3.0441 C.3     1  UNL1        0.0000
     68 H          17.3622    5.4894    3.5458 H       1  UNL1        0.0000
     69 H          16.8013    6.1741    2.0375 H       1  UNL1        0.0000
     70 H          15.7424    5.1354    2.9728 H       1  UNL1        0.0000
     71 C          14.8358    6.5534    6.4082 C.3     1  UNL1        0.0000
     72 C          14.1645    5.3350    5.9049 C.ar    1  UNL1        0.0000
     73 C          14.8916    4.2149    5.5223 C.ar    1  UNL1        0.0000
     74 H          15.9673    4.2227    5.6170 H       1  UNL1        0.0000
     75 C          14.2324    3.0977    5.0408 C.ar    1  UNL1        0.0000
     76 H          14.7973    2.2237    4.7519 H       1  UNL1        0.0000
     77 C          12.8518    3.1002    4.9295 C.ar    1  UNL1        0.0000
     78 H          12.3404    2.2269    4.5525 H       1  UNL1        0.0000
     79 C          12.1277    4.2218    5.3005 C.ar    1  UNL1        0.0000
     80 H          11.0521    4.2256    5.2087 H       1  UNL1        0.0000
     81 C          12.7771    5.3390    5.7933 C.ar    1  UNL1        0.0000
     82 H          12.2277    6.2269    6.0732 H       1  UNL1        0.0000
     83 C          13.7615    6.4994    8.5497 C.ar    1  UNL1        0.0000
     84 C          13.9124    5.1863    8.9915 C.ar    1  UNL1        0.0000
     85 H          14.6803    4.5634    8.5554 H       1  UNL1        0.0000
     86 C          13.0973    4.6998    9.9968 C.ar    1  UNL1        0.0000
     87 H          13.2234    3.6829   10.3389 H       1  UNL1        0.0000
     88 C          12.1291    5.5081   10.5668 C.ar    1  UNL1        0.0000
     89 H          11.4999    5.1242   11.3556 H       1  UNL1        0.0000
     90 C          11.9697    6.8117   10.1219 C.ar    1  UNL1        0.0000
     91 H          11.2106    7.4417   10.5612 H       1  UNL1        0.0000
     92 C          12.7774    7.3111    9.1196 C.ar    1  UNL1        0.0000
     93 H          12.6583    8.3262    8.7498 H       1  UNL1        0.0000
@<TRIPOS>BOND
     1    56    55    1
     2    55    53   ar
     3    55    57   ar
     4    54    53    1
     5    58    57    1
     6    45    44    1
     7    53    52   ar
     8    66    63    1
     9    57    59   ar
    10    69    67    1
    11    43    42    1
    12    44    42   ar
    13    44    46   ar
    14    70    67    1
    15    42    41   ar
    16    63    65    1
    17    63    64    1
    18    63     2    1
    19    67    68    1
    20    67     2    1
    21    47    46    1
    22    52     6    1
    23    52    61   ar
    24    59    60    1
    25    59    61   ar
    26    46    48   ar
    27    33    32    1
    28     6     2    1
    29     6    40    1
    30     2     7    1
    31    61    62    1
    32    41    40    1
    33    41    50   ar
    34    40     5    1
    35    35    32    1
    36    48    50   ar
    37    48    49    1
    38    78    77    1
    39    32    34    1
    40    32     1    1
    41    76    75    1
    42    50    51    1
    43    77    75   ar
    44    77    79   ar
    45    75    73   ar
    46     5     1    1
    47    80    79    1
    48    79    81   ar
    49    37    36    1
    50    73    74    1
    51    73    72   ar
    52     7    71    1
    53    81    72   ar
    54    81    82    1
    55     1    36    1
    56     1     4    1
    57    72    71    1
    58    36    38    1
    59    36    39    1
    60    71     8    1
    61     4    20    1
    62     8    83    1
    63    20     3    1
    64    20    21    1
    65    83    84   ar
    66    83    92   ar
    67    85    84    1
    68    23    22    1
    69    93    92    1
    70     3     9    1
    71    84    86   ar
    72    92    90   ar
    73    22    21   ar
    74    22    24   ar
    75    21    30   ar
    76    11    10    1
    77    25    24    1
    78    24    26   ar
    79    86    87    1
    80    86    88   ar
    81    30    31    1
    82    30    28   ar
    83    90    91    1
    84    90    88   ar
    85     9    10   ar
    86     9    18   ar
    87    10    12   ar
    88    88    89    1
    89    26    28   ar
    90    26    27    1
    91    28    29    1
    92    19    18    1
    93    18    16   ar
    94    12    13    1
    95    12    14   ar
    96    16    14   ar
    97    16    17    1
    98    14    15    1
