@<TRIPOS>MOLECULE
4,5,6,7,8
 84 83 0 0 0
SMALL
GASTEIGER

@<TRIPOS>ATOM
      1 SI         10.7740   10.4836   15.6142 Si      1  UNL1        0.0000
      2 SI         10.0256    7.4223    9.7079 Si      1  UNL1        0.0000
      3 SI         13.5256    4.5610   13.2249 Si      1  UNL1        0.0000
      4 N           9.7944    9.8052   14.3997 N.3     1  UNL1        0.0000
      5 N           9.7180    7.4328   11.3894 N.3     1  UNL1        0.0000
      6 N          11.6082    7.2109   14.3880 N.3     1  UNL1        0.0000
      7 N           8.9815    7.1485   14.1083 N.3     1  UNL1        0.0000
      8 N          13.1445    7.9207   12.9352 N.3     1  UNL1        0.0000
      9 N          13.6556    5.9708   14.2344 N.3     1  UNL1        0.0000
     10 C           8.4482    9.4302   14.7735 C.3     1  UNL1        0.0000
     11 H           7.7550    9.5856   13.9295 H       1  UNL1        0.0000
     12 H           8.0640   10.0306   15.6117 H       1  UNL1        0.0000
     13 C           8.6558    6.5112   11.7542 C.3     1  UNL1        0.0000
     14 H           9.0410    5.4768   11.8192 H       1  UNL1        0.0000
     15 H           7.8581    6.4804   10.9945 H       1  UNL1        0.0000
     16 C          10.9754    6.2042   15.1987 C.3     1  UNL1        0.0000
     17 H          10.8725    6.5702   16.2319 H       1  UNL1        0.0000
     18 H          11.5448    5.2654   15.2337 H       1  UNL1        0.0000
     19 C           8.4150    7.9510   15.1891 C.3     1  UNL1        0.0000
     20 H           9.0443    7.8468   16.0736 H       1  UNL1        0.0000
     21 H           7.3913    7.6218   15.4400 H       1  UNL1        0.0000
     22 C           7.9852    6.8932   13.0755 C.3     1  UNL1        0.0000
     23 H           7.4178    7.8143   12.9094 H       1  UNL1        0.0000
     24 H           7.2771    6.1019   13.3849 H       1  UNL1        0.0000
     25 C           9.5830    5.9130   14.6044 C.3     1  UNL1        0.0000
     26 H           9.7109    5.2312   13.7609 H       1  UNL1        0.0000
     27 H           8.9377    5.4217   15.3531 H       1  UNL1        0.0000
     28 C          10.9570    9.5376   17.2960 C.3     1  UNL1        0.0000
     29 H          11.3953    8.5529   17.1611 H       1  UNL1        0.0000
     30 H           9.9930    9.4076   17.7812 H       1  UNL1        0.0000
     31 H          11.5909   10.0813   17.9902 H       1  UNL1        0.0000
     32 C          12.5296   10.6651   14.8943 C.3     1  UNL1        0.0000
     33 H          12.6435   11.5807   14.3249 H       1  UNL1        0.0000
     34 H          12.7249    9.8175   14.2361 H       1  UNL1        0.0000
     35 H          13.2745   10.6812   15.6839 H       1  UNL1        0.0000
     36 C          10.1318   12.2045   16.2148 C.3     1  UNL1        0.0000
     37 H           9.8985   12.8694   15.3896 H       1  UNL1        0.0000
     38 H          10.8652   12.7038   16.8393 H       1  UNL1        0.0000
     39 H           9.2276   12.0956   16.8059 H       1  UNL1        0.0000
     40 C           8.6859    8.3430    8.6555 C.3     1  UNL1        0.0000
     41 H           8.7280    9.4206    8.7754 H       1  UNL1        0.0000
     42 H           7.6843    8.0265    8.9354 H       1  UNL1        0.0000
     43 H           8.8049    8.1279    7.5980 H       1  UNL1        0.0000
     44 C           9.9821    5.6573    8.9267 C.3     1  UNL1        0.0000
     45 H          10.6183    4.9592    9.4607 H       1  UNL1        0.0000
     46 H          10.3094    5.6711    7.8919 H       1  UNL1        0.0000
     47 H           8.9740    5.2539    8.9404 H       1  UNL1        0.0000
     48 C          11.7475    8.1505    9.3757 C.3     1  UNL1        0.0000
     49 H          12.0458    8.7548   10.2330 H       1  UNL1        0.0000
     50 H          11.7477    8.7710    8.4865 H       1  UNL1        0.0000
     51 H          12.4763    7.3646    9.2170 H       1  UNL1        0.0000
     52 C          12.8080    7.0499   13.8586 C.3     1  UNL1        0.0000
     53 C          14.2113    5.9812   15.5864 C.3     1  UNL1        0.0000
     54 H          13.5514    5.4205   16.2699 H       1  UNL1        0.0000
     55 C          14.3425    7.4073   16.1187 C.3     1  UNL1        0.0000
     56 H          13.3872    7.9256   16.0933 H       1  UNL1        0.0000
     57 H          15.0521    7.9680   15.5150 H       1  UNL1        0.0000
     58 H          14.7010    7.3817   17.1458 H       1  UNL1        0.0000
     59 C          15.5841    5.3120   15.5953 C.3     1  UNL1        0.0000
     60 H          15.5071    4.2621   15.3323 H       1  UNL1        0.0000
     61 H          16.0242    5.3911   16.5868 H       1  UNL1        0.0000
     62 H          16.2399    5.8013   14.8802 H       1  UNL1        0.0000
     63 C          12.9985    3.0211   14.2440 C.3     1  UNL1        0.0000
     64 H          13.5085    2.9662   15.2007 H       1  UNL1        0.0000
     65 H          13.2441    2.1166   13.6972 H       1  UNL1        0.0000
     66 H          11.9306    2.9968   14.4439 H       1  UNL1        0.0000
     67 C          12.1956    4.8597   11.8897 C.3     1  UNL1        0.0000
     68 H          11.7682    5.8653   11.9410 H       1  UNL1        0.0000
     69 H          11.3836    4.1421   11.9773 H       1  UNL1        0.0000
     70 H          12.6157    4.7360   10.8962 H       1  UNL1        0.0000
     71 C          15.1914    4.1364   12.3816 C.3     1  UNL1        0.0000
     72 H          15.7205    5.0172   12.0336 H       1  UNL1        0.0000
     73 H          15.0168    3.4986   11.5205 H       1  UNL1        0.0000
     74 H          15.8573    3.5957   13.0464 H       1  UNL1        0.0000
     75 C          14.5370    7.9859   12.5079 C.3     1  UNL1        0.0000
     76 H          15.1318    7.2860   13.1145 H       1  UNL1        0.0000
     77 C          14.7076    7.5986   11.0373 C.3     1  UNL1        0.0000
     78 H          14.2114    6.6543   10.8353 H       1  UNL1        0.0000
     79 H          15.7664    7.4993   10.8028 H       1  UNL1        0.0000
     80 H          14.2805    8.3662   10.3992 H       1  UNL1        0.0000
     81 C          15.0923    9.3998   12.7173 C.3     1  UNL1        0.0000
     82 H          15.0600    9.6823   13.7664 H       1  UNL1        0.0000
     83 H          14.5029   10.1157   12.1481 H       1  UNL1        0.0000
     84 H          16.1248    9.4443   12.3752 H       1  UNL1        0.0000
@<TRIPOS>BOND
     1    43    40    1
     2    46    44    1
     3    50    48    1
     4    40    41    1
     5    40    42    1
     6    40     2    1
     7    44    47    1
     8    44    45    1
     9    44     2    1
    10    51    48    1
    11    48     2    1
    12    48    49    1
    13     2     5    1
    14    80    77    1
    15    79    77    1
    16    78    77    1
    17    70    67    1
    18    15    13    1
    19    77    75    1
    20     5    13    1
    21    73    71    1
    22    13    14    1
    23    13    22    1
    24    67    68    1
    25    67    69    1
    26    67     3    1
    27    72    71    1
    28    83    81    1
    29    84    81    1
    30    71    74    1
    31    71     3    1
    32    75    81    1
    33    75     8    1
    34    75    76    1
    35    81    82    1
    36    23    22    1
    37     8    52    1
    38    22    24    1
    39    22     7    1
    40     3     9    1
    41     3    63    1
    42    65    63    1
    43    26    25    1
    44    52     9    1
    45    52     6    1
    46    11    10    1
    47     7    25    1
    48     7    19    1
    49     9    53    1
    50    34    32    1
    51    63    66    1
    52    63    64    1
    53    33    32    1
    54     6    16    1
    55     4    10    1
    56     4     1    1
    57    25    16    1
    58    25    27    1
    59    10    19    1
    60    10    12    1
    61    62    59    1
    62    32     1    1
    63    32    35    1
    64    19    21    1
    65    19    20    1
    66    16    18    1
    67    16    17    1
    68    60    59    1
    69    37    36    1
    70    57    55    1
    71    53    59    1
    72    53    55    1
    73    53    54    1
    74    59    61    1
    75     1    36    1
    76     1    28    1
    77    56    55    1
    78    55    58    1
    79    36    39    1
    80    36    38    1
    81    29    28    1
    82    28    30    1
    83    28    31    1
