@<TRIPOS>MOLECULE
3,4,5,6,7
 63 65 0 0 0
SMALL
GASTEIGER

@<TRIPOS>ATOM
      1 SI          4.9238    6.0650   14.6451 Si      1  UNL1        0.0000
      2 SI          6.2455    1.4450   14.5507 Si      1  UNL1        0.0000
      3 N           4.6290    1.3902   15.0730 N.pl3   1  UNL1        0.0000
      4 N           3.1781    2.8275   12.5470 N.3     1  UNL1        0.0000
      5 N           5.9271    2.5673   13.1888 N.3     1  UNL1        0.0000
      6 N           5.0813    4.7028   15.6469 N.pl3   1  UNL1        0.0000
      7 N           4.7031    5.1332   13.1247 N.3     1  UNL1        0.0000
      8 C           6.7336    3.7471   12.9655 C.3     1  UNL1        0.0000
      9 H           7.5960    3.5415   12.3060 H       1  UNL1        0.0000
     10 H           7.1158    4.0868   13.9311 H       1  UNL1        0.0000
     11 C           5.9085    4.8966   12.3486 C.3     1  UNL1        0.0000
     12 H           6.5468    5.7896   12.3072 H       1  UNL1        0.0000
     13 H           5.6459    4.6507   11.3155 H       1  UNL1        0.0000
     14 C           3.4957    5.2791   12.3306 C.3     1  UNL1        0.0000
     15 H           3.5956    6.0782   11.5740 H       1  UNL1        0.0000
     16 H           2.6791    5.5367   13.0123 H       1  UNL1        0.0000
     17 C           3.1134    3.9494   11.6255 C.3     1  UNL1        0.0000
     18 H           2.0869    4.0755   11.2267 H       1  UNL1        0.0000
     19 H           3.7620    3.7970   10.7454 H       1  UNL1        0.0000
     20 C           3.9115    1.6989   12.0261 C.3     1  UNL1        0.0000
     21 H           3.5721    1.4224   11.0084 H       1  UNL1        0.0000
     22 H           3.7177    0.8420   12.6881 H       1  UNL1        0.0000
     23 C           5.4533    1.9311   11.9638 C.3     1  UNL1        0.0000
     24 H           5.9481    0.9673   11.7929 H       1  UNL1        0.0000
     25 H           5.6868    2.5622   11.1011 H       1  UNL1        0.0000
     26 C           7.0044   -0.2004   13.9034 C.3     1  UNL1        0.0000
     27 H           7.7706   -0.0362   13.1515 H       1  UNL1        0.0000
     28 H           6.2431   -0.8441   13.4745 H       1  UNL1        0.0000
     29 H           7.4658   -0.7498   14.7167 H       1  UNL1        0.0000
     30 C           7.5707    2.2249   15.6994 C.3     1  UNL1        0.0000
     31 H           8.5315    2.3412   15.2068 H       1  UNL1        0.0000
     32 H           7.7275    1.5887   16.5643 H       1  UNL1        0.0000
     33 H           7.2574    3.1952   16.0737 H       1  UNL1        0.0000
     34 C           3.3784    7.1654   14.9398 C.3     1  UNL1        0.0000
     35 H           3.1914    7.8714   14.1362 H       1  UNL1        0.0000
     36 H           3.5018    7.7381   15.8532 H       1  UNL1        0.0000
     37 H           2.4974    6.5419   15.0647 H       1  UNL1        0.0000
     38 C           6.4005    7.2850   14.4215 C.3     1  UNL1        0.0000
     39 H           6.3456    7.8355   13.4866 H       1  UNL1        0.0000
     40 H           7.3576    6.7736   14.4549 H       1  UNL1        0.0000
     41 H           6.4036    8.0190   15.2203 H       1  UNL1        0.0000
     42 C           3.9360    0.5583   15.9025 C.ar    1  UNL1        0.0000
     43 C           4.5294   -0.3786   16.7600 C.ar    1  UNL1        0.0000
     44 H           5.6070   -0.4606   16.7675 H       1  UNL1        0.0000
     45 C           3.7519   -1.1690   17.5823 C.ar    1  UNL1        0.0000
     46 H           4.2288   -1.8818   18.2406 H       1  UNL1        0.0000
     47 C           2.3706   -1.0562   17.5752 C.ar    1  UNL1        0.0000
     48 H           1.7704   -1.6752   18.2247 H       1  UNL1        0.0000
     49 C           1.7665   -0.1448   16.7204 C.ar    1  UNL1        0.0000
     50 H           0.6884   -0.0622   16.7008 H       1  UNL1        0.0000
     51 C           2.5307    0.6512   15.8922 C.ar    1  UNL1        0.0000
     52 H           2.0828    1.3564   15.1871 H       1  UNL1        0.0000
     53 C           5.2972    4.6427   16.9973 C.ar    1  UNL1        0.0000
     54 C           5.8327    5.7017   17.7448 C.ar    1  UNL1        0.0000
     55 H           6.0642    6.6254   17.2352 H       1  UNL1        0.0000
     56 C           6.0628    5.5720   19.0993 C.ar    1  UNL1        0.0000
     57 H           6.4802    6.4051   19.6488 H       1  UNL1        0.0000
     58 C           5.7661    4.3900   19.7587 C.ar    1  UNL1        0.0000
     59 H           5.9499    4.2947   20.8182 H       1  UNL1        0.0000
     60 C           5.2248    3.3351   19.0399 C.ar    1  UNL1        0.0000
     61 H           4.9787    2.4095   19.5412 H       1  UNL1        0.0000
     62 C           4.9905    3.4537   17.6856 C.ar    1  UNL1        0.0000
     63 H           4.5553    2.6291   17.1264 H       1  UNL1        0.0000
@<TRIPOS>BOND
     1    19    17    1
     2    21    20    1
     3    25    23    1
     4    18    17    1
     5    13    11    1
     6    15    14    1
     7    17    14    1
     8    17     4    1
     9    24    23    1
    10    23    20    1
    11    23     5    1
    12    20     4    1
    13    20    22    1
    14     9     8    1
    15    12    11    1
    16    14    16    1
    17    14     7    1
    18    11     8    1
    19    11     7    1
    20     8     5    1
    21     8    10    1
    22     7     1    1
    23    27    26    1
    24     5     2    1
    25    28    26    1
    26    39    38    1
    27    26     2    1
    28    26    29    1
    29    35    34    1
    30    38    40    1
    31    38     1    1
    32    38    41    1
    33     2     3    1
    34     2    30    1
    35     1    34    1
    36     1     6    1
    37    34    37    1
    38    34    36    1
    39     3    42    1
    40    52    51    1
    41    31    30    1
    42     6    53    1
    43    30    33    1
    44    30    32    1
    45    51    42   ar
    46    51    49   ar
    47    42    43   ar
    48    50    49    1
    49    49    47   ar
    50    43    44    1
    51    43    45   ar
    52    53    62   ar
    53    53    54   ar
    54    63    62    1
    55    55    54    1
    56    47    45   ar
    57    47    48    1
    58    45    46    1
    59    62    60   ar
    60    54    56   ar
    61    60    61    1
    62    60    58   ar
    63    56    57    1
    64    56    58   ar
    65    58    59    1
