@<TRIPOS>MOLECULE
1,2,3,4,5
 20 21 0 0 0
SMALL
GASTEIGER

@<TRIPOS>ATOM
      1 B          -0.8050    4.2849    1.6224 B       1  UNL1        0.0000
      2 C           0.6835    4.6552    1.5741 C.3     1  UNL1        0.0000
      3 C           1.3467    3.6723    0.7864 C.2     1  UNL1        0.0000
      4 C           0.4144    2.7022    0.3251 C.2     1  UNL1        0.0000
      5 C          -0.8755    2.9651    0.8301 C.2     1  UNL1        0.0000
      6 C          -1.9553    5.1189    2.2546 C.ar    1  UNL1        0.0000
      7 C          -1.7107    6.2579    3.0352 C.ar    1  UNL1        0.0000
      8 C          -2.7010    7.0719    3.5537 C.ar    1  UNL1        0.0000
      9 C          -4.0371    6.7633    3.3105 C.ar    1  UNL1        0.0000
     10 C          -4.3385    5.6224    2.5686 C.ar    1  UNL1        0.0000
     11 C          -3.3161    4.8363    2.0658 C.ar    1  UNL1        0.0000
     12 F          -0.4229    6.5464    3.3434 F       1  UNL1        0.0000
     13 F          -2.3840    8.1472    4.2907 F       1  UNL1        0.0000
     14 F          -5.0156    7.5419    3.7921 F       1  UNL1        0.0000
     15 F          -5.6201    5.2915    2.3543 F       1  UNL1        0.0000
     16 F          -3.6483    3.7213    1.3877 F       1  UNL1        0.0000
     17 H           1.1817    5.5852    1.8249 H       1  UNL1        0.0000
     18 H           2.3568    3.7598    0.3910 H       1  UNL1        0.0000
     19 H           0.6537    1.9375   -0.4055 H       1  UNL1        0.0000
     20 H          -1.7223    2.3544    0.5288 H       1  UNL1        0.0000
@<TRIPOS>BOND
     1    19     4    1
     2     4     3    2
     3     4     5    1
     4    18     3    1
     5    20     5    1
     6     3     2    1
     7     5     1    2
     8    16    11    1
     9     2     1    1
    10     2    17    1
    11     1     6    1
    12    11     6   ar
    13    11    10   ar
    14     6     7   ar
    15    15    10    1
    16    10     9   ar
    17     7    12    1
    18     7     8   ar
    19     9     8   ar
    20     9    14    1
    21     8    13    1
