@<TRIPOS>MOLECULE
1,2,4,6,8
 20 21 0 0 0
SMALL
GASTEIGER

@<TRIPOS>ATOM
      1 B          -0.2304   -5.9481   18.5488 B       1  UNL1        0.0000
      2 C          -0.7321   -5.5324   17.1727 C.2     1  UNL1        0.0000
      3 H          -1.6721   -5.0917   16.8538 H       1  UNL1        0.0000
      4 C           0.2148   -5.9786   16.2240 C.2     1  UNL1        0.0000
      5 H           0.0857   -5.9521   15.1463 H       1  UNL1        0.0000
      6 C           1.2987   -6.6427   16.8595 C.2     1  UNL1        0.0000
      7 H           2.0324   -7.2451   16.3311 H       1  UNL1        0.0000
      8 C           1.1181   -6.6366   18.2636 C.2     1  UNL1        0.0000
      9 H           1.7552   -7.2388   18.9050 H       1  UNL1        0.0000
     10 C          -0.7809   -5.7474   19.9790 C.ar    1  UNL1        0.0000
     11 C          -2.1190   -5.8020   20.4059 C.ar    1  UNL1        0.0000
     12 C          -2.4882   -5.7187   21.7363 C.ar    1  UNL1        0.0000
     13 C          -1.5128   -5.5829   22.7271 C.ar    1  UNL1        0.0000
     14 C          -0.1713   -5.5048   22.3497 C.ar    1  UNL1        0.0000
     15 C           0.1535   -5.5844   21.0144 C.ar    1  UNL1        0.0000
     16 F          -3.0843   -5.9264   19.4788 F       1  UNL1        0.0000
     17 F          -3.7806   -5.7621   22.0937 F       1  UNL1        0.0000
     18 F          -1.8593   -5.4964   24.0234 F       1  UNL1        0.0000
     19 F           0.7789   -5.3103   23.2845 F       1  UNL1        0.0000
     20 F           1.4592   -5.3715   20.6200 F       1  UNL1        0.0000
@<TRIPOS>BOND
     1     5     4    1
     2     4     6    1
     3     4     2    2
     4     7     6    1
     5     3     2    1
     6     6     8    2
     7     2     1    1
     8     8     1    1
     9     8     9    1
    10     1    10    1
    11    16    11    1
    12    10    11   ar
    13    10    15   ar
    14    11    12   ar
    15    20    15    1
    16    15    14   ar
    17    12    17    1
    18    12    13   ar
    19    14    13   ar
    20    14    19    1
    21    13    18    1
