@<TRIPOS>MOLECULE
1,2,3,4,5
 20 21 0 0 0
SMALL
GASTEIGER

@<TRIPOS>ATOM
      1 B           5.2797    1.3322   13.6847 B       1  UNL1        0.0000
      2 C           6.3463    0.3446   13.2149 C.2     1  UNL1        0.0000
      3 C           5.6929   -0.6500   12.4502 C.2     1  UNL1        0.0000
      4 C           4.3113   -0.3763   12.3351 C.2     1  UNL1        0.0000
      5 C           3.9843    0.8171   13.0296 C.2     1  UNL1        0.0000
      6 C           5.4169    2.6539   14.4799 C.ar    1  UNL1        0.0000
      7 C           6.3411    2.9268   15.5026 C.ar    1  UNL1        0.0000
      8 F           7.2397    1.9812   15.8204 F       1  UNL1        0.0000
      9 C           6.3744    4.1303   16.1858 C.ar    1  UNL1        0.0000
     10 F           7.2688    4.3373   17.1608 F       1  UNL1        0.0000
     11 C           5.4698    5.1459   15.8642 C.ar    1  UNL1        0.0000
     12 F           5.4932    6.3143   16.5215 F       1  UNL1        0.0000
     13 C           4.5548    4.9328   14.8341 C.ar    1  UNL1        0.0000
     14 F           3.7147    5.9116   14.4542 F       1  UNL1        0.0000
     15 C           4.5455    3.7131   14.1923 C.ar    1  UNL1        0.0000
     16 F           3.7157    3.5377   13.1020 F       1  UNL1        0.0000
     17 H           7.4001    0.2513   13.4687 H       1  UNL1        0.0000
     18 H           6.1520   -1.5743   12.1151 H       1  UNL1        0.0000
     19 H           3.5869   -1.0793   11.9361 H       1  UNL1        0.0000
     20 H           2.9425    1.0865   13.1957 H       1  UNL1        0.0000
@<TRIPOS>BOND
     1    19     4    1
     2    18     3    1
     3     4     3    1
     4     4     5    2
     5     3     2    2
     6     5    20    1
     7     5     1    1
     8    16    15    1
     9     2    17    1
    10     2     1    1
    11     1     6    1
    12    15     6   ar
    13    15    13   ar
    14    14    13    1
    15     6     7   ar
    16    13    11   ar
    17     7     8    1
    18     7     9   ar
    19    11     9   ar
    20    11    12    1
    21     9    10    1
