@<TRIPOS>MOLECULE
1,2,3,4,5
 31 31 0 0 0
SMALL
GASTEIGER

@<TRIPOS>ATOM
      1 B           3.8465    9.3576    5.8452 B       1  UNL1        0.0000
      2 C           4.5900   10.4351    5.0998 C.3     1  UNL1        0.0000
      3 C           3.7356   11.6023    5.1036 C.3     1  UNL1        0.0000
      4 C           2.5236   11.3103    5.7578 C.3     1  UNL1        0.0000
      5 C           2.4948    9.9493    6.1773 C.2     1  UNL1        0.0000
      6 N           4.2885    7.8451    6.0881 N.4     1  UNL1        0.0000
      7 C           5.5346    7.4927    5.3556 C.3     1  UNL1        0.0000
      8 C           6.7865    8.0033    6.0566 C.3     1  UNL1        0.0000
      9 C           5.6090    5.9923    5.0871 C.3     1  UNL1        0.0000
     10 C           4.2265    7.3726    7.5039 C.3     1  UNL1        0.0000
     11 C           4.5228    8.4863    8.5011 C.3     1  UNL1        0.0000
     12 C           2.8469    6.7772    7.7613 C.3     1  UNL1        0.0000
     13 H           5.6250   10.5397    4.7909 H       1  UNL1        0.0000
     14 H           4.0707   12.6076    4.8772 H       1  UNL1        0.0000
     15 H           1.7598   12.0438    5.9873 H       1  UNL1        0.0000
     16 H           1.6373    9.5832    6.7347 H       1  UNL1        0.0000
     17 H           3.5463    7.3416    5.5828 H       1  UNL1        0.0000
     18 H           5.4453    7.9996    4.3874 H       1  UNL1        0.0000
     19 H           7.6418    7.8852    5.3966 H       1  UNL1        0.0000
     20 H           6.6796    9.0566    6.2952 H       1  UNL1        0.0000
     21 H           6.9900    7.4507    6.9701 H       1  UNL1        0.0000
     22 H           6.4792    5.7770    4.4727 H       1  UNL1        0.0000
     23 H           5.7014    5.4145    6.0039 H       1  UNL1        0.0000
     24 H           4.7221    5.6639    4.5495 H       1  UNL1        0.0000
     25 H           4.5274    8.0775    9.5082 H       1  UNL1        0.0000
     26 H           5.4874    8.9432    8.3104 H       1  UNL1        0.0000
     27 H           3.7628    9.2579    8.4361 H       1  UNL1        0.0000
     28 H           2.7795    6.4165    8.7842 H       1  UNL1        0.0000
     29 H           2.0792    7.5301    7.6127 H       1  UNL1        0.0000
     30 H           2.6516    5.9436    7.0909 H       1  UNL1        0.0000
     31 H           4.9723    6.5817    7.6314 H       1  UNL1        0.0000
@<TRIPOS>BOND
     1    18     7    1
     2    22     9    1
     3    24     9    1
     4    13     2    1
     5    14     3    1
     6     9     7    1
     7     9    23    1
     8     2     3    1
     9     2     1    1
    10     3     4    1
    11     7     8    1
    12     7     6    1
    13    19     8    1
    14    17     6    1
    15     4    15    1
    16     4     5    1
    17     1     6    1
    18     1     5    2
    19     8    20    1
    20     8    21    1
    21     6    10    1
    22     5    16    1
    23    30    12    1
    24    10    31    1
    25    10    12    1
    26    10    11    1
    27    29    12    1
    28    12    28    1
    29    26    11    1
    30    27    11    1
    31    11    25    1
