@<TRIPOS>MOLECULE
3,4,5,6,15,16,17,18,23
 57 60 0 0 0
SMALL
GASTEIGER

@<TRIPOS>ATOM
      1 SI          1.3060    1.9289   13.4230 Si      1  UNL1        0.0000
      2 SI          3.9601    0.9006   11.8282 Si      1  UNL1        0.0000
      3 O           2.5081    1.5932   12.2892 O.3     1  UNL1        0.0000
      4 C           0.1698    2.6633   12.1230 C.3     1  UNL1        0.0000
      5 C          -0.1711    1.8849   10.9405 C.3     1  UNL1        0.0000
      6 C          -1.0857    2.6521   10.1815 C.3     1  UNL1        0.0000
      7 C          -1.2784    3.8799   10.8280 C.2     1  UNL1        0.0000
      8 C          -2.1479    5.0216   10.4006 C.3     1  UNL1        0.0000
      9 C          -1.7501    6.2883   11.1586 C.3     1  UNL1        0.0000
     10 C          -1.6358    6.0032   12.6548 C.3     1  UNL1        0.0000
     11 C          -0.4489    5.0763   12.9260 C.3     1  UNL1        0.0000
     12 C          -0.5080    3.8991   12.0003 C.2     1  UNL1        0.0000
     13 C           1.9824    2.9956   14.8429 C.3     1  UNL1        0.0000
     14 C           0.7011    0.2540   14.1055 C.3     1  UNL1        0.0000
     15 C           3.7005    1.3928   10.0329 C.2     1  UNL1        0.0000
     16 C           4.1959    2.6008    9.4728 C.3     1  UNL1        0.0000
     17 C           3.4544    2.9129    8.3237 C.2     1  UNL1        0.0000
     18 C           2.4543    1.9241    8.1663 C.2     1  UNL1        0.0000
     19 C           1.4598    1.7669    7.0482 C.3     1  UNL1        0.0000
     20 C           1.1280    0.2816    6.8810 C.3     1  UNL1        0.0000
     21 C           0.7129   -0.3263    8.2210 C.3     1  UNL1        0.0000
     22 C           1.8907   -0.3449    9.2037 C.3     1  UNL1        0.0000
     23 C           2.5909    0.9894    9.2192 C.2     1  UNL1        0.0000
     24 C           5.3986    1.7908   12.6954 C.3     1  UNL1        0.0000
     25 C           3.9483   -0.9540   12.2432 C.3     1  UNL1        0.0000
     26 H          -0.0801    0.8023   10.8965 H       1  UNL1        0.0000
     27 H          -1.5971    2.3339    9.2826 H       1  UNL1        0.0000
     28 H          -2.0582    5.1863    9.3246 H       1  UNL1        0.0000
     29 H          -3.1951    4.7780   10.6137 H       1  UNL1        0.0000
     30 H          -0.7871    6.6416   10.7846 H       1  UNL1        0.0000
     31 H          -2.4895    7.0705   10.9798 H       1  UNL1        0.0000
     32 H          -2.5565    5.5287   13.0027 H       1  UNL1        0.0000
     33 H          -1.5053    6.9357   13.2064 H       1  UNL1        0.0000
     34 H           0.4797    5.6365   12.7616 H       1  UNL1        0.0000
     35 H          -0.4510    4.7422   13.9672 H       1  UNL1        0.0000
     36 H           1.2030    3.1911   15.5709 H       1  UNL1        0.0000
     37 H           2.3701    3.9500   14.5024 H       1  UNL1        0.0000
     38 H           2.7864    2.4756   15.3552 H       1  UNL1        0.0000
     39 H          -0.1274    0.4036   14.7876 H       1  UNL1        0.0000
     40 H           1.4911   -0.2509   14.6511 H       1  UNL1        0.0000
     41 H           0.3615   -0.4156   13.3218 H       1  UNL1        0.0000
     42 H           5.0666    3.1417    9.8250 H       1  UNL1        0.0000
     43 H           3.6515    3.7287    7.6392 H       1  UNL1        0.0000
     44 H           1.8714    2.1718    6.1203 H       1  UNL1        0.0000
     45 H           0.5373    2.3284    7.2628 H       1  UNL1        0.0000
     46 H           0.3235    0.1605    6.1536 H       1  UNL1        0.0000
     47 H           2.0077   -0.2447    6.5035 H       1  UNL1        0.0000
     48 H           0.3533   -1.3467    8.0706 H       1  UNL1        0.0000
     49 H          -0.1158    0.2605    8.6293 H       1  UNL1        0.0000
     50 H           1.5515   -0.6455   10.2024 H       1  UNL1        0.0000
     51 H           2.6094   -1.1068    8.8763 H       1  UNL1        0.0000
     52 H           5.2923    2.8713   12.6566 H       1  UNL1        0.0000
     53 H           6.3463    1.5305   12.2367 H       1  UNL1        0.0000
     54 H           5.4534    1.5051   13.7414 H       1  UNL1        0.0000
     55 H           4.7592   -1.4595   11.7328 H       1  UNL1        0.0000
     56 H           3.0227   -1.4449   11.9646 H       1  UNL1        0.0000
     57 H           4.0897   -1.1001   13.3086 H       1  UNL1        0.0000
@<TRIPOS>BOND
     1    44    19    1
     2    46    20    1
     3    47    20    1
     4    20    19    1
     5    20    21    1
     6    19    45    1
     7    19    18    1
     8    43    17    1
     9    48    21    1
    10    18    17    2
    11    18    23    1
    12    21    49    1
    13    21    22    1
    14    17    16    1
    15    51    22    1
    16    22    23    1
    17    22    50    1
    18    23    15    2
    19    27     6    1
    20    28     8    1
    21    16    42    1
    22    16    15    1
    23    15     2    1
    24     6     7    1
    25     6     5    1
    26     8    29    1
    27     8     7    1
    28     8     9    1
    29    30     9    1
    30     7    12    2
    31    26     5    1
    32     5     4    1
    33    31     9    1
    34     9    10    1
    35    55    25    1
    36     2    25    1
    37     2     3    1
    38     2    24    1
    39    56    25    1
    40    12     4    1
    41    12    11    1
    42     4     1    1
    43    53    24    1
    44    25    57    1
    45     3     1    1
    46    10    11    1
    47    10    32    1
    48    10    33    1
    49    52    24    1
    50    24    54    1
    51    34    11    1
    52    11    35    1
    53    41    14    1
    54     1    14    1
    55     1    13    1
    56    14    40    1
    57    14    39    1
    58    37    13    1
    59    13    38    1
    60    13    36    1
