@<TRIPOS>MOLECULE
2,3,5,7,10,53
 64 66 0 0 0
SMALL
GASTEIGER

@<TRIPOS>ATOM
      1 SI          7.6479    3.7923    4.3788 Si      1  UNL1        0.0000
      2 N           7.8310    2.1256    3.9936 N.3     1  UNL1        0.0000
      3 C           6.9199    1.1683    3.9083 C.3     1  UNL1        0.0000
      4 SI         12.9081   -1.4923    2.1801 Si      1  UNL1        0.0000
      5 N           7.4082    0.0190    3.4931 N.pl3   1  UNL1        0.0000
      6 C           5.5061    1.4148    4.2850 C.ar    1  UNL1        0.0000
      7 N           9.0534   -1.6519    2.6390 N.pl3   1  UNL1        0.0000
      8 C           4.6267    1.9862    3.3726 C.ar    1  UNL1        0.0000
      9 H           4.9748    2.2196    2.3768 H       1  UNL1        0.0000
     10 N          11.2160   -1.3121    2.4221 N.3     1  UNL1        0.0000
     11 C           3.3173    2.2445    3.7365 C.ar    1  UNL1        0.0000
     12 H           2.6381    2.6874    3.0224 H       1  UNL1        0.0000
     13 C           2.8766    1.9387    5.0134 C.ar    1  UNL1        0.0000
     14 H           1.8546    2.1434    5.2967 H       1  UNL1        0.0000
     15 C           3.7488    1.3691    5.9261 C.ar    1  UNL1        0.0000
     16 H           3.4071    1.1292    6.9225 H       1  UNL1        0.0000
     17 C           5.0579    1.1071    5.5647 C.ar    1  UNL1        0.0000
     18 H           5.7408    0.6605    6.2734 H       1  UNL1        0.0000
     19 C           6.3178    4.2490    5.6792 C.3     1  UNL1        0.0000
     20 H           5.3143    4.1593    5.2760 H       1  UNL1        0.0000
     21 H           6.4466    5.2724    6.0169 H       1  UNL1        0.0000
     22 H           6.3750    3.6060    6.5526 H       1  UNL1        0.0000
     23 C           7.2878    4.7941    2.7865 C.3     1  UNL1        0.0000
     24 H           8.0598    4.6136    2.0437 H       1  UNL1        0.0000
     25 H           7.2714    5.8600    2.9893 H       1  UNL1        0.0000
     26 H           6.3298    4.5305    2.3466 H       1  UNL1        0.0000
     27 C           9.3500    4.3070    5.0778 C.3     1  UNL1        0.0000
     28 H          10.1520    3.7914    4.5553 H       1  UNL1        0.0000
     29 H           9.4440    4.0886    6.1378 H       1  UNL1        0.0000
     30 H           9.5073    5.3728    4.9528 H       1  UNL1        0.0000
     31 C           6.8263   -1.1963    3.1934 C.ar    1  UNL1        0.0000
     32 C           5.4873   -1.5562    3.2951 C.ar    1  UNL1        0.0000
     33 H           4.7610   -0.8442    3.6565 H       1  UNL1        0.0000
     34 C           5.0761   -2.8288    2.9281 C.ar    1  UNL1        0.0000
     35 H           4.0322   -3.0942    3.0142 H       1  UNL1        0.0000
     36 C           5.9881   -3.7521    2.4494 C.ar    1  UNL1        0.0000
     37 H           5.6574   -4.7391    2.1594 H       1  UNL1        0.0000
     38 C           7.3294   -3.4212    2.3325 C.ar    1  UNL1        0.0000
     39 H           8.0293   -4.1462    1.9450 H       1  UNL1        0.0000
     40 C           7.7724   -2.1562    2.7024 C.ar    1  UNL1        0.0000
     41 C          13.6760   -0.3220    3.4832 C.3     1  UNL1        0.0000
     42 H          13.0824    0.5862    3.5701 H       1  UNL1        0.0000
     43 H          14.6846   -0.0345    3.2065 H       1  UNL1        0.0000
     44 H          13.7273   -0.7823    4.4661 H       1  UNL1        0.0000
     45 C          13.6618   -3.2344    2.4313 C.3     1  UNL1        0.0000
     46 H          13.3309   -3.6811    3.3641 H       1  UNL1        0.0000
     47 H          14.7458   -3.1858    2.4562 H       1  UNL1        0.0000
     48 H          13.3809   -3.9120    1.6316 H       1  UNL1        0.0000
     49 C          13.3510   -0.8856    0.4200 C.3     1  UNL1        0.0000
     50 H          12.9586    0.1143    0.2586 H       1  UNL1        0.0000
     51 H          12.9421   -1.5357   -0.3488 H       1  UNL1        0.0000
     52 H          14.4256   -0.8445    0.2757 H       1  UNL1        0.0000
     53 C          10.2253   -2.1835    2.3570 C.3     1  UNL1        0.0000
     54 C          10.4606   -3.6094    2.0222 C.ar    1  UNL1        0.0000
     55 C          10.6576   -3.9895    0.6996 C.ar    1  UNL1        0.0000
     56 H          10.6175   -3.2395   -0.0773 H       1  UNL1        0.0000
     57 C          10.8981   -5.3148    0.3845 C.ar    1  UNL1        0.0000
     58 H          11.0471   -5.6044   -0.6457 H       1  UNL1        0.0000
     59 C          10.9519   -6.2691    1.3868 C.ar    1  UNL1        0.0000
     60 H          11.1431   -7.3031    1.1400 H       1  UNL1        0.0000
     61 C          10.7604   -5.8948    2.7064 C.ar    1  UNL1        0.0000
     62 H          10.8032   -6.6374    3.4899 H       1  UNL1        0.0000
     63 C          10.5134   -4.5715    3.0246 C.ar    1  UNL1        0.0000
     64 H          10.3585   -4.2764    4.0529 H       1  UNL1        0.0000
@<TRIPOS>BOND
     1    58    57    1
     2    51    49    1
     3    56    55    1
     4    50    49    1
     5    52    49    1
     6    57    55   ar
     7    57    59   ar
     8    49     4    1
     9    55    54   ar
    10    60    59    1
    11    59    61   ar
    12    48    45    1
    13    39    38    1
    14    54    53    1
    15    54    63   ar
    16    24    23    1
    17    37    36    1
    18     4    10    1
    19     4    45    1
    20     4    41    1
    21    38    36   ar
    22    38    40   ar
    23    26    23    1
    24    53    10    1
    25    53     7    1
    26     9     8    1
    27    45    47    1
    28    45    46    1
    29    36    34   ar
    30     7    40    1
    31    40    31   ar
    32    61    63   ar
    33    61    62    1
    34    23    25    1
    35    23     1    1
    36    34    35    1
    37    34    32   ar
    38    12    11    1
    39    63    64    1
    40    31    32   ar
    41    31     5    1
    42    43    41    1
    43    32    33    1
    44     8    11   ar
    45     8     6   ar
    46    41    42    1
    47    41    44    1
    48     5     3    1
    49    11    13   ar
    50     3     2    1
    51     3     6    1
    52     2     1    1
    53     6    17   ar
    54     1    27    1
    55     1    19    1
    56    28    27    1
    57    30    27    1
    58    13    14    1
    59    13    15   ar
    60    27    29    1
    61    20    19    1
    62    17    15   ar
    63    17    18    1
    64    19    21    1
    65    19    22    1
    66    15    16    1
