@<TRIPOS>MOLECULE
3,4,5,6
 126 130 0 0 0
SMALL
GASTEIGER

@<TRIPOS>ATOM
      1 SI         10.0343    8.1199    3.9026 Si      1  UNL1        0.0000
      2 SI          6.4625    4.3372    8.6164 Si      1  UNL1        0.0000
      3 O          10.1573    4.6432    6.4707 O.3     1  UNL1        0.0000
      4 O           9.5754    6.5367    3.9881 O.3     1  UNL1        0.0000
      5 O           7.1992    5.1003    4.5089 O.3     1  UNL1        0.0000
      6 O           7.1516    4.0021    7.1528 O.3     1  UNL1        0.0000
      7 C          10.7343    3.5634    6.0295 C.ar    1  UNL1        0.0000
      8 C          10.4922    2.2935    6.6173 C.ar    1  UNL1        0.0000
      9 C          11.2790    1.2064    6.3010 C.ar    1  UNL1        0.0000
     10 C          12.3222    1.2767    5.3820 C.ar    1  UNL1        0.0000
     11 C          12.5175    2.4981    4.7519 C.ar    1  UNL1        0.0000
     12 C          11.7470    3.6091    5.0377 C.ar    1  UNL1        0.0000
     13 C          11.9164    4.8773    4.2392 C.3     1  UNL1        0.0000
     14 C          10.9596    4.7923    3.0783 C.ar    1  UNL1        0.0000
     15 C          11.1635    3.8379    2.0939 C.ar    1  UNL1        0.0000
     16 C          10.2543    3.6126    1.0687 C.ar    1  UNL1        0.0000
     17 C           9.1137    4.3999    1.0460 C.ar    1  UNL1        0.0000
     18 C           8.8843    5.3839    1.9985 C.ar    1  UNL1        0.0000
     19 C           9.8089    5.5761    3.0217 C.ar    1  UNL1        0.0000
     20 C           7.5983    6.1662    1.9383 C.3     1  UNL1        0.0000
     21 C           6.4357    5.2680    2.2743 C.ar    1  UNL1        0.0000
     22 C           5.5176    4.8976    1.3076 C.ar    1  UNL1        0.0000
     23 C           4.4301    4.0842    1.5965 C.ar    1  UNL1        0.0000
     24 C           4.2800    3.6660    2.9156 C.ar    1  UNL1        0.0000
     25 C           5.1767    4.0100    3.9075 C.ar    1  UNL1        0.0000
     26 C           6.3048    4.7969    3.5957 C.ar    1  UNL1        0.0000
     27 C           4.9932    3.5340    5.3251 C.3     1  UNL1        0.0000
     28 C           6.0477    2.5049    5.6379 C.ar    1  UNL1        0.0000
     29 C           6.0115    1.2850    4.9838 C.ar    1  UNL1        0.0000
     30 C           6.9894    0.3160    5.1724 C.ar    1  UNL1        0.0000
     31 C           8.0255    0.6192    6.0409 C.ar    1  UNL1        0.0000
     32 C           8.1045    1.8362    6.7077 C.ar    1  UNL1        0.0000
     33 C           7.1031    2.7809    6.5060 C.ar    1  UNL1        0.0000
     34 C           9.3162    2.1427    7.5492 C.3     1  UNL1        0.0000
     35 C          13.1604    0.0408    5.0934 C.3     1  UNL1        0.0000
     36 C          14.2566    0.2990    4.0556 C.3     1  UNL1        0.0000
     37 C          12.2479   -1.0711    4.5546 C.3     1  UNL1        0.0000
     38 C          13.8354   -0.4286    6.3901 C.3     1  UNL1        0.0000
     39 C          10.5263    2.5072    0.0601 C.3     1  UNL1        0.0000
     40 C           9.4219    2.3885   -0.9935 C.3     1  UNL1        0.0000
     41 C          10.6174    1.1716    0.8120 C.3     1  UNL1        0.0000
     42 C          11.8506    2.7898   -0.6622 C.3     1  UNL1        0.0000
     43 C           3.4120    3.6521    0.5522 C.3     1  UNL1        0.0000
     44 C           3.3753    2.1180    0.4919 C.3     1  UNL1        0.0000
     45 C           3.7456    4.1732   -0.8484 C.3     1  UNL1        0.0000
     46 C           2.0281    4.1889    0.9444 C.3     1  UNL1        0.0000
     47 C           6.9010   -0.9957    4.4073 C.3     1  UNL1        0.0000
     48 C           8.0543   -1.9479    4.7349 C.3     1  UNL1        0.0000
     49 C           6.9466   -0.6894    2.9035 C.3     1  UNL1        0.0000
     50 C           5.5822   -1.6995    4.7564 C.3     1  UNL1        0.0000
     51 C          10.5418    8.5238    2.1076 C.3     1  UNL1        0.0000
     52 C           8.4822    9.0791    4.4605 C.3     1  UNL1        0.0000
     53 C          11.4912    8.4236    5.0947 C.3     1  UNL1        0.0000
     54 C           5.2585    2.9263    9.0653 C.3     1  UNL1        0.0000
     55 C           7.8266    4.5115    9.9370 C.3     1  UNL1        0.0000
     56 C           5.5678    5.9992    8.3369 C.3     1  UNL1        0.0000
     57 H          11.0754    0.2701    6.8031 H       1  UNL1        0.0000
     58 H          13.3015    2.6085    4.0179 H       1  UNL1        0.0000
     59 H          12.9434    4.9712    3.8783 H       1  UNL1        0.0000
     60 H          11.6647    5.7254    4.8726 H       1  UNL1        0.0000
     61 H          12.0586    3.2402    2.1580 H       1  UNL1        0.0000
     62 H           8.3612    4.2636    0.2864 H       1  UNL1        0.0000
     63 H           7.6329    6.9828    2.6619 H       1  UNL1        0.0000
     64 H           7.4633    6.5818    0.9364 H       1  UNL1        0.0000
     65 H           5.6677    5.2708    0.3062 H       1  UNL1        0.0000
     66 H           3.4324    3.0533    3.1905 H       1  UNL1        0.0000
     67 H           3.9976    3.0986    5.4429 H       1  UNL1        0.0000
     68 H           5.0948    4.3835    6.0028 H       1  UNL1        0.0000
     69 H           5.1938    1.1088    4.3009 H       1  UNL1        0.0000
     70 H           8.8202   -0.0872    6.2095 H       1  UNL1        0.0000
     71 H           9.4943    1.3334    8.2616 H       1  UNL1        0.0000
     72 H           9.1739    3.0814    8.0810 H       1  UNL1        0.0000
     73 H          14.8345   -0.6107    3.9010 H       1  UNL1        0.0000
     74 H          14.9371    1.0772    4.3933 H       1  UNL1        0.0000
     75 H          13.8284    0.5902    3.0989 H       1  UNL1        0.0000
     76 H          12.8340   -1.9517    4.2966 H       1  UNL1        0.0000
     77 H          11.7255   -0.7289    3.6630 H       1  UNL1        0.0000
     78 H          11.5068   -1.3625    5.2938 H       1  UNL1        0.0000
     79 H          14.4412   -1.3138    6.2035 H       1  UNL1        0.0000
     80 H          13.0988   -0.6732    7.1504 H       1  UNL1        0.0000
     81 H          14.4790    0.3564    6.7818 H       1  UNL1        0.0000
     82 H           9.3300    3.3072   -1.5685 H       1  UNL1        0.0000
     83 H           8.4652    2.1600   -0.5297 H       1  UNL1        0.0000
     84 H           9.6628    1.5819   -1.6834 H       1  UNL1        0.0000
     85 H          10.7918    0.3548    0.1141 H       1  UNL1        0.0000
     86 H           9.6879    0.9814    1.3448 H       1  UNL1        0.0000
     87 H          11.4245    1.1820    1.5390 H       1  UNL1        0.0000
     88 H          11.7983    3.7434   -1.1836 H       1  UNL1        0.0000
     89 H          12.0560    2.0081   -1.3909 H       1  UNL1        0.0000
     90 H          12.6806    2.8296    0.0373 H       1  UNL1        0.0000
     91 H           2.6734    1.7872   -0.2712 H       1  UNL1        0.0000
     92 H           3.0676    1.6922    1.4429 H       1  UNL1        0.0000
     93 H           4.3615    1.7286    0.2471 H       1  UNL1        0.0000
     94 H           2.9954    3.8223   -1.5548 H       1  UNL1        0.0000
     95 H           4.7156    3.8092   -1.1794 H       1  UNL1        0.0000
     96 H           3.7450    5.2605   -0.8717 H       1  UNL1        0.0000
     97 H           1.2857    3.8938    0.2051 H       1  UNL1        0.0000
     98 H           2.0495    5.2755    0.9991 H       1  UNL1        0.0000
     99 H           1.7165    3.8065    1.9125 H       1  UNL1        0.0000
    100 H           8.0595   -2.2057    5.7917 H       1  UNL1        0.0000
    101 H           9.0106   -1.5043    4.4690 H       1  UNL1        0.0000
    102 H           7.9400   -2.8681    4.1646 H       1  UNL1        0.0000
    103 H           6.1121   -0.0624    2.6011 H       1  UNL1        0.0000
    104 H           6.9093   -1.6127    2.3284 H       1  UNL1        0.0000
    105 H           7.8690   -0.1659    2.6601 H       1  UNL1        0.0000
    106 H           4.7251   -1.0894    4.4852 H       1  UNL1        0.0000
    107 H           5.5348   -1.8992    5.8251 H       1  UNL1        0.0000
    108 H           5.5089   -2.6460    4.2242 H       1  UNL1        0.0000
    109 H           9.7108    8.4090    1.4177 H       1  UNL1        0.0000
    110 H          11.3324    7.8572    1.7735 H       1  UNL1        0.0000
    111 H          10.9072    9.5412    2.0176 H       1  UNL1        0.0000
    112 H           7.9056    8.4650    5.1501 H       1  UNL1        0.0000
    113 H           7.8361    9.3457    3.6291 H       1  UNL1        0.0000
    114 H           8.7478   10.0012    4.9660 H       1  UNL1        0.0000
    115 H          11.3329    7.8869    6.0264 H       1  UNL1        0.0000
    116 H          11.5966    9.4786    5.3272 H       1  UNL1        0.0000
    117 H          12.4374    8.0911    4.6769 H       1  UNL1        0.0000
    118 H           5.7766    1.9713    9.0905 H       1  UNL1        0.0000
    119 H           4.4562    2.8378    8.3383 H       1  UNL1        0.0000
    120 H           4.8063    3.0829   10.0387 H       1  UNL1        0.0000
    121 H           8.1760    3.5477   10.2968 H       1  UNL1        0.0000
    122 H           7.4704    5.0651   10.8002 H       1  UNL1        0.0000
    123 H           8.6810    5.0417    9.5249 H       1  UNL1        0.0000
    124 H           4.5413    5.8687    8.0067 H       1  UNL1        0.0000
    125 H           6.0953    6.5714    7.5760 H       1  UNL1        0.0000
    126 H           5.5373    6.5891    9.2466 H       1  UNL1        0.0000
@<TRIPOS>BOND
     1    84    40    1
     2    82    40    1
     3    94    45    1
     4    89    42    1
     5    88    42    1
     6    95    45    1
     7    40    83    1
     8    40    39    1
     9    96    45    1
    10    45    43    1
    11    42    90    1
    12    42    39    1
    13    91    44    1
    14    39    41    1
    15    39    16    1
    16    85    41    1
    17    97    46    1
    18    93    44    1
    19    62    17    1
    20    65    22    1
    21    44    43    1
    22    44    92    1
    23    43    46    1
    24    43    23    1
    25    41    86    1
    26    41    87    1
    27    64    20    1
    28    46    98    1
    29    46    99    1
    30    17    16   ar
    31    17    18   ar
    32    16    15   ar
    33    22    23   ar
    34    22    21   ar
    35   109    51    1
    36    23    24   ar
    37   110    51    1
    38    20    18    1
    39    20    21    1
    40    20    63    1
    41    18    19   ar
    42   111    51    1
    43    15    61    1
    44    15    14   ar
    45    51     1    1
    46    21    26   ar
    47   104    49    1
    48   103    49    1
    49   105    49    1
    50    49    47    1
    51    24    66    1
    52    24    25   ar
    53    19    14   ar
    54    19     4    1
    55    14    13    1
    56    75    36    1
    57    26    25   ar
    58    26     5    1
    59   113    52    1
    60    77    37    1
    61    59    13    1
    62    73    36    1
    63     1     4    1
    64     1    52    1
    65     1    53    1
    66    25    27    1
    67    58    11    1
    68    36    74    1
    69    36    35    1
    70   102    48    1
    71   108    50    1
    72    13    60    1
    73    13    12    1
    74    76    37    1
    75    69    29    1
    76    47    48    1
    77    47    50    1
    78    47    30    1
    79    52   114    1
    80    52   112    1
    81   101    48    1
    82   106    50    1
    83    37    35    1
    84    37    78    1
    85   117    53    1
    86    48   100    1
    87    11    12   ar
    88    11    10   ar
    89    50   107    1
    90    29    30   ar
    91    29    28   ar
    92    12     7   ar
    93    35    10    1
    94    35    38    1
    95    53   116    1
    96    53   115    1
    97    30    31   ar
    98    27    67    1
    99    27    28    1
   100    27    68    1
   101    10     9   ar
   102    28    33   ar
   103     7     3    1
   104     7     8   ar
   105    31    70    1
   106    31    32   ar
   107    79    38    1
   108     9     8   ar
   109     9    57    1
   110    38    81    1
   111    38    80    1
   112    33    32   ar
   113    33     6    1
   114     8    34    1
   115    32    34    1
   116     6     2    1
   117    34    72    1
   118    34    71    1
   119   125    56    1
   120   124    56    1
   121    56     2    1
   122    56   126    1
   123   119    54    1
   124     2    54    1
   125     2    55    1
   126    54   118    1
   127    54   120    1
   128   123    55    1
   129    55   121    1
   130    55   122    1
