@<TRIPOS>MOLECULE
1,2,3,4
 128 134 0 0 0
SMALL
GASTEIGER

@<TRIPOS>ATOM
      1 O           0.1998    2.9806    7.2938 O.3     1  UNL1       -0.2873
      2 O          -1.4347    2.1678    5.1364 O.3     1  UNL1       -0.4868
      3 O           1.1949    2.7176    4.3602 O.3     1  UNL1       -0.2873
      4 O           2.7845    2.1539    6.6921 O.3     1  UNL1       -0.4868
      5 C          -0.1786    3.6636    8.3514 C.ar    1  UNL1        0.1859
      6 C           0.7476    4.0321    9.3427 C.ar    1  UNL1        0.0042
      7 C           0.3454    4.8058   10.4162 C.ar    1  UNL1       -0.0509
      8 C          -0.9741    5.2123   10.5734 C.ar    1  UNL1       -0.0412
      9 C          -1.8989    4.7747    9.6268 C.ar    1  UNL1       -0.0509
     10 C          -1.5308    4.0061    8.5420 C.ar    1  UNL1        0.0042
     11 C          -2.5203    3.4808    7.5303 C.3     1  UNL1        0.0047
     12 C          -2.3084    4.1766    6.2112 C.ar    1  UNL1       -0.0007
     13 C          -2.5971    5.5311    6.1329 C.ar    1  UNL1       -0.0511
     14 C          -2.3765    6.2774    4.9819 C.ar    1  UNL1       -0.0412
     15 C          -1.8473    5.6151    3.8858 C.ar    1  UNL1       -0.0511
     16 C          -1.5378    4.2607    3.9204 C.ar    1  UNL1       -0.0007
     17 C          -1.7667    3.5376    5.0926 C.ar    1  UNL1        0.1279
     18 C          -0.8707    3.6564    2.7098 C.3     1  UNL1        0.0047
     19 C           0.5354    4.2010    2.6263 C.ar    1  UNL1        0.0042
     20 C           0.8744    5.2121    1.7503 C.ar    1  UNL1       -0.0509
     21 C           2.1616    5.7383    1.6834 C.ar    1  UNL1       -0.0412
     22 C           3.1160    5.1908    2.5311 C.ar    1  UNL1       -0.0509
     23 C           2.8096    4.1783    3.4220 C.ar    1  UNL1        0.0042
     24 C           1.4983    3.6752    3.5107 C.ar    1  UNL1        0.1859
     25 C           3.8364    3.6095    4.3700 C.3     1  UNL1        0.0047
     26 C           3.6177    4.2305    5.7260 C.ar    1  UNL1       -0.0007
     27 C           3.8866    5.5837    5.8730 C.ar    1  UNL1       -0.0511
     28 C           3.6339    6.2736    7.0513 C.ar    1  UNL1       -0.0412
     29 C           3.0944    5.5542    8.1065 C.ar    1  UNL1       -0.0511
     30 C           2.8158    4.1966    8.0073 C.ar    1  UNL1       -0.0007
     31 C           3.0754    3.5306    6.8065 C.ar    1  UNL1        0.1279
     32 C           2.1625    3.5239    9.1885 C.3     1  UNL1        0.0047
     33 C          -1.4427    6.0804   11.7321 C.3     1  UNL1       -0.0127
     34 C          -2.4620    5.2977   12.5718 C.3     1  UNL1       -0.0560
     35 C          -0.2953    6.5063   12.6523 C.3     1  UNL1       -0.0560
     36 C          -2.0984    7.3520   11.1740 C.3     1  UNL1       -0.0560
     37 C          -2.6848    7.7662    4.9803 C.3     1  UNL1       -0.0127
     38 C          -4.1683    7.9797    5.3108 C.3     1  UNL1       -0.0560
     39 C          -2.3945    8.4260    3.6296 C.3     1  UNL1       -0.0560
     40 C          -1.8095    8.4436    6.0439 C.3     1  UNL1       -0.0560
     41 C           2.4596    6.8684    0.7090 C.3     1  UNL1       -0.0127
     42 C           2.1923    6.3873   -0.7240 C.3     1  UNL1       -0.0560
     43 C           3.9120    7.3467    0.7867 C.3     1  UNL1       -0.0560
     44 C           1.5493    8.0624    1.0326 C.3     1  UNL1       -0.0560
     45 C           3.9215    7.7650    7.1217 C.3     1  UNL1       -0.0127
     46 C           3.6027    8.3619    8.4949 C.3     1  UNL1       -0.0560
     47 C           5.4069    8.0114    6.8240 C.3     1  UNL1       -0.0560
     48 C           3.0534    8.4766    6.0745 C.3     1  UNL1       -0.0560
     49 C           3.8370    1.3278    7.2347 C.3     1  UNL1        0.1147
     50 C           4.9759    1.1876    6.2619 C.ar    1  UNL1       -0.0104
     51 C           4.9135    0.2208    5.2644 C.ar    1  UNL1       -0.0554
     52 C           5.9252    0.1231    4.3261 C.ar    1  UNL1       -0.0614
     53 C           7.0060    0.9886    4.3774 C.ar    1  UNL1       -0.0617
     54 C           7.0743    1.9510    5.3702 C.ar    1  UNL1       -0.0614
     55 C           6.0625    2.0519    6.3095 C.ar    1  UNL1       -0.0554
     56 C          -2.4392    1.3291    4.5297 C.3     1  UNL1        0.1147
     57 C          -3.4659    0.8991    5.5423 C.ar    1  UNL1       -0.0104
     58 C          -3.1730   -0.1522    6.4036 C.ar    1  UNL1       -0.0554
     59 C          -4.0873   -0.5329    7.3699 C.ar    1  UNL1       -0.0614
     60 C          -5.2960    0.1347    7.4843 C.ar    1  UNL1       -0.0617
     61 C          -5.5889    1.1859    6.6317 C.ar    1  UNL1       -0.0614
     62 C          -4.6771    1.5687    5.6633 C.ar    1  UNL1       -0.0554
     63 H           1.0909    5.0772   11.1477 H       1  UNL1        0.0624
     64 H          -2.9444    5.0261    9.7409 H       1  UNL1        0.0624
     65 H          -2.3584    2.4038    7.4187 H       1  UNL1        0.0364
     66 H          -3.5410    3.6524    7.8805 H       1  UNL1        0.0364
     67 H          -2.9925    6.0044    7.0188 H       1  UNL1        0.0624
     68 H          -1.6376    6.1448    2.9716 H       1  UNL1        0.0624
     69 H          -1.4269    3.9192    1.8066 H       1  UNL1        0.0364
     70 H          -0.8129    2.5687    2.7948 H       1  UNL1        0.0364
     71 H           0.1057    5.5928    1.0921 H       1  UNL1        0.0624
     72 H           4.1358    5.5433    2.5046 H       1  UNL1        0.0624
     73 H           4.8454    3.8334    4.0166 H       1  UNL1        0.0364
     74 H           3.7085    2.5253    4.4188 H       1  UNL1        0.0364
     75 H           4.2912    6.1035    5.0185 H       1  UNL1        0.0624
     76 H           2.8573    6.0377    9.0399 H       1  UNL1        0.0624
     77 H           2.1145    2.4400    9.0378 H       1  UNL1        0.0364
     78 H           2.7309    3.7362   10.0976 H       1  UNL1        0.0364
     79 H          -2.8021    5.9005   13.4119 H       1  UNL1        0.0238
     80 H          -2.0075    4.3882   12.9589 H       1  UNL1        0.0238
     81 H          -3.3282    5.0176   11.9791 H       1  UNL1        0.0238
     82 H           0.4546    7.0716   12.1038 H       1  UNL1        0.0238
     83 H           0.1761    5.6423   13.1146 H       1  UNL1        0.0238
     84 H          -0.6826    7.1418   13.4467 H       1  UNL1        0.0238
     85 H          -1.3901    7.8971   10.5532 H       1  UNL1        0.0238
     86 H          -2.4172    8.0012   11.9874 H       1  UNL1        0.0238
     87 H          -2.9687    7.1142   10.5688 H       1  UNL1        0.0238
     88 H          -4.4163    7.5826    6.2908 H       1  UNL1        0.0238
     89 H          -4.7938    7.4831    4.5719 H       1  UNL1        0.0238
     90 H          -4.4040    9.0419    5.3042 H       1  UNL1        0.0238
     91 H          -2.6338    9.4861    3.6850 H       1  UNL1        0.0238
     92 H          -3.0008    7.9858    2.8412 H       1  UNL1        0.0238
     93 H          -1.3434    8.3321    3.3680 H       1  UNL1        0.0238
     94 H          -2.0167    8.0515    7.0356 H       1  UNL1        0.0238
     95 H          -1.9909    9.5165    6.0528 H       1  UNL1        0.0238
     96 H          -0.7580    8.2705    5.8245 H       1  UNL1        0.0238
     97 H           1.1549    6.0920   -0.8530 H       1  UNL1        0.0238
     98 H           2.8207    5.5294   -0.9536 H       1  UNL1        0.0238
     99 H           2.4132    7.1799   -1.4366 H       1  UNL1        0.0238
    100 H           4.1461    7.7222    1.7802 H       1  UNL1        0.0238
    101 H           4.0676    8.1563    0.0759 H       1  UNL1        0.0238
    102 H           4.6014    6.5436    0.5371 H       1  UNL1        0.0238
    103 H           0.5009    7.8020    0.9169 H       1  UNL1        0.0238
    104 H           1.7675    8.8956    0.3671 H       1  UNL1        0.0238
    105 H           1.7080    8.3878    2.0589 H       1  UNL1        0.0238
    106 H           3.8283    9.4265    8.4890 H       1  UNL1        0.0238
    107 H           4.2027    7.8951    9.2725 H       1  UNL1        0.0238
    108 H           2.5493    8.2426    8.7360 H       1  UNL1        0.0238
    109 H           5.6293    9.0748    6.8836 H       1  UNL1        0.0238
    110 H           5.6748    7.6632    5.8308 H       1  UNL1        0.0238
    111 H           6.0273    7.4882    7.5486 H       1  UNL1        0.0238
    112 H           3.2275    9.5503    6.1076 H       1  UNL1        0.0238
    113 H           2.0007    8.2886    6.2747 H       1  UNL1        0.0238
    114 H           3.2739    8.1226    5.0714 H       1  UNL1        0.0238
    115 H           3.3739    0.3548    7.4265 H       1  UNL1        0.0748
    116 H           4.1935    1.7653    8.1762 H       1  UNL1        0.0748
    117 H           4.0639   -0.4470    5.2298 H       1  UNL1        0.0621
    118 H           5.8705   -0.6287    3.5530 H       1  UNL1        0.0618
    119 H           7.7953    0.9117    3.6444 H       1  UNL1        0.0618
    120 H           7.9164    2.6258    5.4129 H       1  UNL1        0.0618
    121 H           6.1127    2.8083    7.0799 H       1  UNL1        0.0621
    122 H          -1.9050    0.4540    4.1411 H       1  UNL1        0.0748
    123 H          -2.9187    1.8700    3.7038 H       1  UNL1        0.0748
    124 H          -2.2204   -0.6562    6.3160 H       1  UNL1        0.0621
    125 H          -3.8571   -1.3511    8.0366 H       1  UNL1        0.0618
    126 H          -6.0091   -0.1633    8.2387 H       1  UNL1        0.0618
    127 H          -6.5296    1.7090    6.7213 H       1  UNL1        0.0618
    128 H          -4.9036    2.3928    5.0012 H       1  UNL1        0.0621
@<TRIPOS>BOND
     1    99    42    1
     2    98    42    1
     3    97    42    1
     4    42    41    1
     5   101    43    1
     6   104    44    1
     7   102    43    1
     8    41    43    1
     9    41    44    1
    10    41    21    1
    11    43   100    1
    12   103    44    1
    13    44   105    1
    14    71    20    1
    15    21    20   ar
    16    21    22   ar
    17    20    19   ar
    18    69    18    1
    19    72    22    1
    20    22    23   ar
    21    19    18    1
    22    19    24   ar
    23    18    70    1
    24    18    16    1
    25    92    39    1
    26    68    15    1
    27    93    39    1
    28    23    24   ar
    29    23    25    1
    30    24     3    1
    31   118    52    1
    32    39    91    1
    33    39    37    1
    34   119    53    1
    35   123    56    1
    36    15    16   ar
    37    15    14   ar
    38    16    17   ar
    39    73    25    1
    40   122    56    1
    41    52    53   ar
    42    52    51   ar
    43    25    74    1
    44    25    26    1
    45    53    54   ar
    46    56     2    1
    47    56    57    1
    48    89    38    1
    49    37    14    1
    50    37    38    1
    51    37    40    1
    52    14    13   ar
    53   128    62    1
    54    75    27    1
    55   114    48    1
    56    17     2    1
    57    17    12   ar
    58   117    51    1
    59    51    50   ar
    60    90    38    1
    61    38    88    1
    62    54   120    1
    63    54    55   ar
    64    57    62   ar
    65    57    58   ar
    66    62    61   ar
    67    26    27   ar
    68    26    31   ar
    69    96    40    1
    70   110    47    1
    71    27    28   ar
    72    40    95    1
    73    40    94    1
    74    48   112    1
    75    48   113    1
    76    48    45    1
    77    13    12   ar
    78    13    67    1
    79    12    11    1
    80    50    55   ar
    81    50    49    1
    82    55   121    1
    83   124    58    1
    84    58    59   ar
    85    61   127    1
    86    61    60   ar
    87     4    31    1
    88     4    49    1
    89    31    30   ar
    90    47   109    1
    91    47    45    1
    92    47   111    1
    93    28    45    1
    94    28    29   ar
    95    45    46    1
    96    49   115    1
    97    49   116    1
    98     1     5    1
    99    59    60   ar
   100    59   125    1
   101    65    11    1
   102    60   126    1
   103    11    66    1
   104    11    10    1
   105    30    29   ar
   106    30    32    1
   107    29    76    1
   108     5    10   ar
   109     5     6   ar
   110   106    46    1
   111    46   108    1
   112    46   107    1
   113    10     9   ar
   114    77    32    1
   115    32     6    1
   116    32    78    1
   117     6     7   ar
   118     9    64    1
   119     9     8   ar
   120     7     8   ar
   121     7    63    1
   122    85    36    1
   123    87    36    1
   124     8    33    1
   125    36    33    1
   126    36    86    1
   127    33    34    1
   128    33    35    1
   129    81    34    1
   130    82    35    1
   131    34    80    1
   132    34    79    1
   133    35    83    1
   134    35    84    1
