@<TRIPOS>MOLECULE
1,2,3,4
 100 105 0 0 0
SMALL
GASTEIGER

@<TRIPOS>ATOM
      1 O           9.6103    2.7369    4.8936 O.3     1  UNL1       -0.2866
      2 O          10.3162    0.5833    2.9412 O.3     1  UNL1       -0.4914
      3 O           8.5964   -0.0674    5.1230 O.3     1  UNL1       -0.4914
      4 O          11.3137   -0.7291    5.6213 O.3     1  UNL1       -0.2866
      5 C           8.6927    3.0609    4.0212 C.ar    1  UNL1        0.1944
      6 C           8.9358    3.0989    2.6235 C.ar    1  UNL1        0.0332
      7 C           7.9268    3.4329    1.7336 C.ar    1  UNL1       -0.0465
      8 H           8.1796    3.4428    0.6822 H       1  UNL1        0.0628
      9 C           6.6317    3.7289    2.1415 C.ar    1  UNL1       -0.0406
     10 C           6.3933    3.7261    3.5079 C.ar    1  UNL1       -0.0466
     11 H           5.4223    3.9937    3.8937 H       1  UNL1        0.0628
     12 C           7.3813    3.4228    4.4348 C.ar    1  UNL1        0.0297
     13 C          10.2765    2.8364    2.0627 C.ar    1  UNL1        0.0275
     14 C          10.9294    1.6106    2.2146 C.ar    1  UNL1        0.1283
     15 C          12.1804    1.3980    1.6464 C.ar    1  UNL1       -0.0193
     16 H          12.6679    0.4437    1.7863 H       1  UNL1        0.0654
     17 C          12.7922    2.4007    0.9170 C.ar    1  UNL1       -0.0583
     18 H          13.7672    2.2302    0.4864 H       1  UNL1        0.0619
     19 C          12.1494    3.6156    0.7436 C.ar    1  UNL1       -0.0610
     20 H          12.6191    4.4000    0.1690 H       1  UNL1        0.0618
     21 C          10.9076    3.8264    1.3106 C.ar    1  UNL1       -0.0504
     22 H          10.4064    4.7748    1.1834 H       1  UNL1        0.0625
     23 C           9.9340   -0.5544    2.1585 C.3     1  UNL1        0.0897
     24 H          10.4688   -0.5277    1.2024 H       1  UNL1        0.0696
     25 H          10.2380   -1.4507    2.7088 H       1  UNL1        0.0696
     26 C           8.3349   -0.7392    6.3178 C.ar    1  UNL1        0.1283
     27 C           8.9418   -1.9723    6.5785 C.ar    1  UNL1        0.0275
     28 C           8.6212   -2.6222    7.7693 C.ar    1  UNL1       -0.0504
     29 H           9.0858   -3.5754    7.9783 H       1  UNL1        0.0625
     30 C           7.7278   -2.0747    8.6707 C.ar    1  UNL1       -0.0610
     31 H           7.4922   -2.6013    9.5842 H       1  UNL1        0.0618
     32 C           7.1363   -0.8511    8.4006 C.ar    1  UNL1       -0.0583
     33 H           6.4336   -0.4154    9.0959 H       1  UNL1        0.0619
     34 C           7.4400   -0.1871    7.2259 C.ar    1  UNL1       -0.0193
     35 H           6.9831    0.7662    6.9993 H       1  UNL1        0.0654
     36 C           9.8580   -2.6056    5.6139 C.ar    1  UNL1        0.0332
     37 C          11.0062   -1.9115    5.1603 C.ar    1  UNL1        0.1944
     38 C          11.8245   -2.5915    4.2148 C.ar    1  UNL1        0.0297
     39 C          11.4916   -3.8702    3.7949 C.ar    1  UNL1       -0.0466
     40 H          12.1560   -4.3517    3.0920 H       1  UNL1        0.0628
     41 C          10.3734   -4.5539    4.2609 C.ar    1  UNL1       -0.0406
     42 C           9.5718   -3.8930    5.1791 C.ar    1  UNL1       -0.0465
     43 H           8.6813   -4.3592    5.5723 H       1  UNL1        0.0628
     44 C           5.5663    4.0421    1.1030 C.3     1  UNL1       -0.0126
     45 C           7.0503    3.4797    5.8662 C.ar    1  UNL1       -0.0142
     46 C           7.8968    4.1225    6.7669 C.ar    1  UNL1       -0.0539
     47 H           8.8086    4.5704    6.4024 H       1  UNL1        0.0624
     48 C           7.5627    4.2095    8.1061 C.ar    1  UNL1       -0.0612
     49 H           8.2223    4.7228    8.7916 H       1  UNL1        0.0618
     50 C           6.3833    3.6511    8.5728 C.ar    1  UNL1       -0.0617
     51 H           6.1254    3.7199    9.6198 H       1  UNL1        0.0618
     52 C           5.5347    3.0080    7.6871 C.ar    1  UNL1       -0.0612
     53 H           4.6128    2.5690    8.0426 H       1  UNL1        0.0618
     54 C           5.8644    2.9240    6.3461 C.ar    1  UNL1       -0.0539
     55 H           5.2002    2.4145    5.6608 H       1  UNL1        0.0624
     56 C          10.0801   -5.9566    3.7517 C.3     1  UNL1       -0.0126
     57 C           9.8937   -5.9083    2.2282 C.3     1  UNL1       -0.0560
     58 H          10.7926   -5.5517    1.7329 H       1  UNL1        0.0238
     59 H           9.0739   -5.2402    1.9704 H       1  UNL1        0.0238
     60 H           9.6646   -6.9005    1.8444 H       1  UNL1        0.0238
     61 C          13.0117   -1.9329    3.6484 C.ar    1  UNL1       -0.0142
     62 C          13.8804   -1.1888    4.4454 C.ar    1  UNL1       -0.0539
     63 H          13.6937   -1.1171    5.5062 H       1  UNL1        0.0624
     64 C          14.9930   -0.5768    3.8962 C.ar    1  UNL1       -0.0612
     65 H          15.6564   -0.0044    4.5282 H       1  UNL1        0.0618
     66 C          15.2657   -0.7006    2.5443 C.ar    1  UNL1       -0.0617
     67 H          16.1354   -0.2230    2.1173 H       1  UNL1        0.0618
     68 C          14.4155   -1.4445    1.7421 C.ar    1  UNL1       -0.0612
     69 H          14.6201   -1.5471    0.6852 H       1  UNL1        0.0618
     70 C          13.2979   -2.0497    2.2871 C.ar    1  UNL1       -0.0539
     71 H          12.6293   -2.6095    1.6470 H       1  UNL1        0.0624
     72 C          11.2576   -6.8775    4.0998 C.3     1  UNL1       -0.0560
     73 H          11.0615   -7.8893    3.7500 H       1  UNL1        0.0238
     74 H          11.4048   -6.9064    5.1774 H       1  UNL1        0.0238
     75 H          12.1792   -6.5307    3.6410 H       1  UNL1        0.0238
     76 C           8.8114   -6.5523    4.3681 C.3     1  UNL1       -0.0560
     77 H           7.9379   -5.9513    4.1250 H       1  UNL1        0.0238
     78 H           8.9014   -6.6281    5.4492 H       1  UNL1        0.0238
     79 H           8.6510   -7.5537    3.9730 H       1  UNL1        0.0238
     80 C           5.9986    5.2674    0.2860 C.3     1  UNL1       -0.0560
     81 H           6.9317    5.0823   -0.2388 H       1  UNL1        0.0238
     82 H           6.1406    6.1233    0.9424 H       1  UNL1        0.0238
     83 H           5.2372    5.5182   -0.4501 H       1  UNL1        0.0238
     84 C           4.2040    4.3446    1.7324 C.3     1  UNL1       -0.0560
     85 H           3.4791    4.5545    0.9481 H       1  UNL1        0.0238
     86 H           4.2590    5.2155    2.3812 H       1  UNL1        0.0238
     87 H           3.8415    3.4953    2.3070 H       1  UNL1        0.0238
     88 C           5.4052    2.8304    0.1732 C.3     1  UNL1       -0.0560
     89 H           5.1125    1.9527    0.7467 H       1  UNL1        0.0238
     90 H           6.3336    2.6050   -0.3448 H       1  UNL1        0.0238
     91 H           4.6380    3.0268   -0.5732 H       1  UNL1        0.0238
     92 C           7.4796   -0.0351    4.2272 C.3     1  UNL1        0.0897
     93 H           6.5622   -0.2235    4.7968 H       1  UNL1        0.0696
     94 H           7.4254    0.9716    3.8028 H       1  UNL1        0.0696
     95 C           8.4254   -0.5937    1.9013 C.3     1  UNL1       -0.0156
     96 H           8.2511   -1.2810    1.0705 H       1  UNL1        0.0299
     97 H           8.0892    0.4003    1.5959 H       1  UNL1        0.0299
     98 C           7.6002   -1.0679    3.1004 C.3     1  UNL1       -0.0156
     99 H           6.5912   -1.2957    2.7499 H       1  UNL1        0.0299
    100 H           8.0338   -1.9860    3.5047 H       1  UNL1        0.0299
@<TRIPOS>BOND
     1    91    88    1
     2    83    80    1
     3    90    88    1
     4    81    80    1
     5    20    19    1
     6    88    89    1
     7    88    44    1
     8    80    82    1
     9    80    44    1
    10    18    17    1
    11     8     7    1
    12    69    68    1
    13    19    17   ar
    14    19    21   ar
    15    17    15   ar
    16    85    84    1
    17    96    95    1
    18    44    84    1
    19    44     9    1
    20    22    21    1
    21    24    23    1
    22    21    13   ar
    23    97    95    1
    24    15    16    1
    25    15    14   ar
    26    71    70    1
    27    84    87    1
    28    84    86    1
    29    58    57    1
    30     7     9   ar
    31     7     6   ar
    32    68    70   ar
    33    68    66   ar
    34    60    57    1
    35    95    23    1
    36    95    98    1
    37    59    57    1
    38    13    14   ar
    39    13     6    1
    40    67    66    1
    41     9    10   ar
    42    23    25    1
    43    23     2    1
    44    14     2    1
    45    57    56    1
    46    70    61   ar
    47    66    64   ar
    48     6     5   ar
    49    99    98    1
    50    40    39    1
    51    98   100    1
    52    98    92    1
    53    10    11    1
    54    10    12   ar
    55    75    72    1
    56    61    38    1
    57    61    62   ar
    58    73    72    1
    59    56    72    1
    60    56    41    1
    61    56    76    1
    62    39    38   ar
    63    39    41   ar
    64    94    92    1
    65    64    62   ar
    66    64    65    1
    67    79    76    1
    68     5    12   ar
    69     5     1    1
    70    72    74    1
    71    77    76    1
    72    38    37   ar
    73    92    93    1
    74    92     3    1
    75    41    42   ar
    76    76    78    1
    77    12    45    1
    78    62    63    1
    79     3    26    1
    80    37    36   ar
    81    37     4    1
    82    42    43    1
    83    42    36   ar
    84    36    27    1
    85    55    54    1
    86    45    54   ar
    87    45    46   ar
    88    26    27   ar
    89    26    34   ar
    90    54    52   ar
    91    47    46    1
    92    27    28   ar
    93    46    48   ar
    94    35    34    1
    95    34    32   ar
    96    52    53    1
    97    52    50   ar
    98    28    29    1
    99    28    30   ar
   100    48    50   ar
   101    48    49    1
   102    32    30   ar
   103    32    33    1
   104    50    51    1
   105    30    31    1
