@<TRIPOS>MOLECULE
1,2,4,6,8,10,27
 48 49 0 0 0
SMALL
GASTEIGER

@<TRIPOS>ATOM
      1 C           8.7473    3.4316    6.3465 C.2     1  UNL1        0.0000
      2 C           9.7878    3.5160    5.3768 C.3     1  UNL1        0.0000
      3 H           9.6757    4.1955    4.5379 H       1  UNL1        0.0000
      4 C          11.0021    2.8341    5.5612 C.3     1  UNL1        0.0000
      5 H          11.8141    2.9676    4.8553 H       1  UNL1        0.0000
      6 C          11.2108    2.0591    6.7313 C.2     1  UNL1        0.0000
      7 H          12.1715    1.5858    6.8986 H       1  UNL1        0.0000
      8 C          10.1875    1.9372    7.6685 C.2     1  UNL1        0.0000
      9 H          10.3395    1.3644    8.5762 H       1  UNL1        0.0000
     10 C           8.9475    2.5972    7.4599 C.2     1  UNL1        0.0000
     11 H           8.1779    2.5319    8.2214 H       1  UNL1        0.0000
     12 C           7.4887    4.2099    6.1892 C.3     1  UNL1        0.0000
     13 H           7.6736    5.0881    5.5691 H       1  UNL1        0.0000
     14 H           7.1534    4.5623    7.1648 H       1  UNL1        0.0000
     15 SI          6.0667    3.1584    5.4062 Si      1  UNL1        0.0000
     16 C           4.6579    4.3872    5.0446 C.3     1  UNL1        0.0000
     17 H           3.8081    3.8770    4.6067 H       1  UNL1        0.0000
     18 H           4.9563    5.1746    4.3609 H       1  UNL1        0.0000
     19 H           4.3169    4.8580    5.9589 H       1  UNL1        0.0000
     20 C           5.5022    1.7853    6.5850 C.3     1  UNL1        0.0000
     21 H           5.1996    2.1904    7.5471 H       1  UNL1        0.0000
     22 H           6.2966    1.0586    6.7603 H       1  UNL1        0.0000
     23 H           4.6496    1.2465    6.1810 H       1  UNL1        0.0000
     24 C           6.7042    2.5155    3.7210 C.3     1  UNL1        0.0000
     25 H           5.8782    2.1789    3.0953 H       1  UNL1        0.0000
     26 H           7.2150    3.3246    3.1966 H       1  UNL1        0.0000
     27 P           7.8932    1.1264    3.8530 P.3     1  UNL1        0.0000
     28 C           6.8321   -0.3532    3.8247 C.3     1  UNL1        0.0000
     29 H           6.2355   -0.3819    4.7339 H       1  UNL1        0.0000
     30 H           7.4924   -1.2224    3.8191 H       1  UNL1        0.0000
     31 H           6.1886   -0.3543    2.9461 H       1  UNL1        0.0000
     32 C           8.6873    1.0531    2.1746 C.3     1  UNL1        0.0000
     33 H           9.1429    0.0548    2.1425 H       1  UNL1        0.0000
     34 C           7.7191    1.2083    1.0033 C.3     1  UNL1        0.0000
     35 H           7.2712    2.2043    1.0165 H       1  UNL1        0.0000
     36 H           6.9157    0.4724    1.0622 H       1  UNL1        0.0000
     37 C           8.4743    1.0253   -0.3124 C.3     1  UNL1        0.0000
     38 H           8.8974    0.0196   -0.3486 H       1  UNL1        0.0000
     39 H           7.7820    1.1302   -1.1509 H       1  UNL1        0.0000
     40 C           9.5974    2.0503   -0.4322 C.3     1  UNL1        0.0000
     41 H           9.1696    3.0562   -0.4500 H       1  UNL1        0.0000
     42 H          10.1383    1.9017   -1.3687 H       1  UNL1        0.0000
     43 C          10.5556    1.9248    0.7480 C.3     1  UNL1        0.0000
     44 H          11.0301    0.9424    0.7301 H       1  UNL1        0.0000
     45 H          11.3416    2.6793    0.6724 H       1  UNL1        0.0000
     46 C           9.8076    2.0855    2.0679 C.3     1  UNL1        0.0000
     47 H           9.3902    3.0953    2.1294 H       1  UNL1        0.0000
     48 H          10.4994    1.9370    2.9002 H       1  UNL1        0.0000
@<TRIPOS>BOND
     1    42    40    1
     2    39    37    1
     3    41    40    1
     4    40    37    1
     5    40    43    1
     6    38    37    1
     7    37    34    1
     8    45    43    1
     9    44    43    1
    10    43    46    1
    11    34    35    1
    12    34    36    1
    13    34    32    1
    14    46    47    1
    15    46    32    1
    16    46    48    1
    17    33    32    1
    18    32    27    1
    19    31    28    1
    20    25    24    1
    21    26    24    1
    22    24    27    1
    23    24    15    1
    24    30    28    1
    25    28    27    1
    26    28    29    1
    27    18    16    1
    28     3     2    1
    29    17    16    1
    30     5     4    1
    31    16    15    1
    32    16    19    1
    33     2     4    1
    34     2     1    1
    35    15    12    1
    36    15    20    1
    37     4     6    1
    38    13    12    1
    39    23    20    1
    40    12     1    1
    41    12    14    1
    42     1    10    2
    43    20    22    1
    44    20    21    1
    45     6     7    1
    46     6     8    2
    47    10     8    1
    48    10    11    1
    49     8     9    1
