@<TRIPOS>MOLECULE
1,6,7,8,9,10,11
 46 48 0 0 0
SMALL
GASTEIGER

@<TRIPOS>ATOM
      1 P           2.8572   10.2458    1.7170 P.3     1  UNL1        0.0000
      2 SI          0.4343   11.4021    3.2122 Si      1  UNL1        0.0000
      3 C           2.2422   10.7709    3.3611 C.3     1  UNL1        0.0000
      4 C           0.3763   13.2629    2.8032 C.3     1  UNL1        0.0000
      5 C          -0.5260   11.0030    4.8057 C.3     1  UNL1        0.0000
      6 C          -0.2727   10.4076    1.7566 C.3     1  UNL1        0.0000
      7 C          -0.1137   10.8806    0.4202 C.2     1  UNL1        0.0000
      8 C          -0.3427   10.0321   -0.6708 C.2     1  UNL1        0.0000
      9 C          -0.8163    8.7080   -0.4579 C.2     1  UNL1        0.0000
     10 C          -1.0175    8.2423    0.8372 C.2     1  UNL1        0.0000
     11 C          -0.6960    9.0773    1.9406 C.3     1  UNL1        0.0000
     12 C           3.2565   11.7755    0.8110 C.ar    1  UNL1        0.0000
     13 C           3.2526   11.6768   -0.5785 C.ar    1  UNL1        0.0000
     14 C           3.5754   12.7740   -1.3554 C.ar    1  UNL1        0.0000
     15 C           3.9049   13.9770   -0.7512 C.ar    1  UNL1        0.0000
     16 C           3.9236   14.0751    0.6304 C.ar    1  UNL1        0.0000
     17 C           3.6067   12.9783    1.4130 C.ar    1  UNL1        0.0000
     18 C           4.5299    9.5949    2.0099 C.ar    1  UNL1        0.0000
     19 C           5.0390    8.6693    1.1040 C.ar    1  UNL1        0.0000
     20 C           6.3216    8.1789    1.2659 C.ar    1  UNL1        0.0000
     21 C           7.1039    8.6119    2.3238 C.ar    1  UNL1        0.0000
     22 C           6.6024    9.5416    3.2194 C.ar    1  UNL1        0.0000
     23 C           5.3207   10.0380    3.0648 C.ar    1  UNL1        0.0000
     24 H           2.9144   11.4982    3.8132 H       1  UNL1        0.0000
     25 H           2.2711    9.8577    3.9632 H       1  UNL1        0.0000
     26 H           1.0087   13.5271    1.9604 H       1  UNL1        0.0000
     27 H           0.7127   13.8400    3.6580 H       1  UNL1        0.0000
     28 H          -0.6368   13.5818    2.5781 H       1  UNL1        0.0000
     29 H          -1.5885   11.1837    4.6809 H       1  UNL1        0.0000
     30 H          -0.1817   11.6373    5.6148 H       1  UNL1        0.0000
     31 H          -0.3958    9.9726    5.1212 H       1  UNL1        0.0000
     32 H           0.1558   11.9170    0.2445 H       1  UNL1        0.0000
     33 H          -0.2335   10.4034   -1.6840 H       1  UNL1        0.0000
     34 H          -1.0475    8.0806   -1.3116 H       1  UNL1        0.0000
     35 H          -1.4141    7.2488    1.0103 H       1  UNL1        0.0000
     36 H          -0.8519    8.6982    2.9445 H       1  UNL1        0.0000
     37 H           2.9963   10.7268   -1.0348 H       1  UNL1        0.0000
     38 H           3.5705   12.6918   -2.4320 H       1  UNL1        0.0000
     39 H           4.1525   14.8373   -1.3554 H       1  UNL1        0.0000
     40 H           4.1887   15.0105    1.1020 H       1  UNL1        0.0000
     41 H           3.6335   13.0676    2.4888 H       1  UNL1        0.0000
     42 H           4.4150    8.3256    0.2895 H       1  UNL1        0.0000
     43 H           6.7083    7.4527    0.5669 H       1  UNL1        0.0000
     44 H           8.1036    8.2239    2.4539 H       1  UNL1        0.0000
     45 H           7.2108    9.8803    4.0458 H       1  UNL1        0.0000
     46 H           4.9439   10.7602    3.7738 H       1  UNL1        0.0000
@<TRIPOS>BOND
     1    38    14    1
     2    33     8    1
     3    39    15    1
     4    14    15   ar
     5    14    13   ar
     6    34     9    1
     7    37    13    1
     8    15    16   ar
     9     8     9    1
    10     8     7    2
    11    13    12   ar
    12     9    10    2
    13    32     7    1
    14    42    19    1
    15     7     6    1
    16    43    20    1
    17    16    40    1
    18    16    17   ar
    19    12    17   ar
    20    12     1    1
    21    10    35    1
    22    10    11    1
    23    19    20   ar
    24    19    18   ar
    25    20    21   ar
    26    17    41    1
    27     1    18    1
    28     1     3    1
    29     6    11    1
    30     6     2    1
    31    11    36    1
    32    26     4    1
    33    18    23   ar
    34    21    44    1
    35    21    22   ar
    36    28     4    1
    37     4     2    1
    38     4    27    1
    39    23    22   ar
    40    23    46    1
    41     2     3    1
    42     2     5    1
    43    22    45    1
    44     3    24    1
    45     3    25    1
    46    29     5    1
    47     5    31    1
    48     5    30    1
