@<TRIPOS>MOLECULE
1,3,5,7,9,11,13
 61 65 0 0 0
SMALL
GASTEIGER

@<TRIPOS>ATOM
      1 P           7.6987    8.6192   15.6401 P.3     1  UNL1        0.0000
      2 SI          6.5716    6.5471   13.5269 Si      1  UNL1        0.0000
      3 C           5.1529    5.7720   16.5545 C.3     1  UNL1        0.0000
      4 H           5.3059    4.8412   16.0205 H       1  UNL1        0.0000
      5 C           5.1274    5.7597   17.9728 C.2     1  UNL1        0.0000
      6 H           5.2737    4.8257   18.5028 H       1  UNL1        0.0000
      7 C           4.9015    6.9431   18.6741 C.2     1  UNL1        0.0000
      8 H           4.8755    6.9431   19.7579 H       1  UNL1        0.0000
      9 C           4.6502    8.1463   17.9662 C.2     1  UNL1        0.0000
     10 H           4.4163    9.0555   18.5078 H       1  UNL1        0.0000
     11 C           4.6147    8.1365   16.5643 C.2     1  UNL1        0.0000
     12 H           4.3198    9.0358   16.0321 H       1  UNL1        0.0000
     13 C           4.8755    6.9452   15.8273 C.3     1  UNL1        0.0000
     14 C           4.8509    6.9340   14.3375 C.3     1  UNL1        0.0000
     15 H           4.4753    7.8915   13.9727 H       1  UNL1        0.0000
     16 H           4.1556    6.1638   13.9956 H       1  UNL1        0.0000
     17 C           6.2928    6.8712   11.6661 C.3     1  UNL1        0.0000
     18 H           7.2375    6.9246   11.1372 H       1  UNL1        0.0000
     19 H           5.7409    7.7810   11.4569 H       1  UNL1        0.0000
     20 H           5.7305    6.0504   11.2368 H       1  UNL1        0.0000
     21 C           7.0488    4.7219   13.7795 C.3     1  UNL1        0.0000
     22 H           7.4715    4.5598   14.7687 H       1  UNL1        0.0000
     23 H           7.8064    4.4321   13.0568 H       1  UNL1        0.0000
     24 H           6.2034    4.0522   13.6464 H       1  UNL1        0.0000
     25 C           8.0333    7.6316   14.1421 C.3     1  UNL1        0.0000
     26 H           8.8311    6.9582   14.4685 H       1  UNL1        0.0000
     27 H           8.4440    8.2926   13.3766 H       1  UNL1        0.0000
     28 C           9.3328    9.3590   15.9394 C.ar    1  UNL1        0.0000
     29 C          10.2647    8.6370   16.6781 C.ar    1  UNL1        0.0000
     30 H           9.9885    7.6767   17.0916 H       1  UNL1        0.0000
     31 C          11.5268    9.1603   16.8915 C.ar    1  UNL1        0.0000
     32 H          12.2466    8.6025   17.4713 H       1  UNL1        0.0000
     33 C          11.8636   10.3991   16.3708 C.ar    1  UNL1        0.0000
     34 H          12.8479   10.8094   16.5436 H       1  UNL1        0.0000
     35 C          10.9379   11.1164   15.6307 C.ar    1  UNL1        0.0000
     36 H          11.1999   12.0826   15.2243 H       1  UNL1        0.0000
     37 C           9.6733   10.6012   15.4128 C.ar    1  UNL1        0.0000
     38 H           8.9500   11.1645   14.8391 H       1  UNL1        0.0000
     39 C           6.6977   10.0280   15.0645 C.ar    1  UNL1        0.0000
     40 C           6.2505   10.1021   13.7836 C.ar    1  UNL1        0.0000
     41 H           6.5313    9.3584   13.0541 H       1  UNL1        0.0000
     42 C           5.3985   11.1520   13.3428 C.ar    1  UNL1        0.0000
     43 C           4.9562   11.1878   12.0098 C.ar    1  UNL1        0.0000
     44 H           5.2886   10.4142   11.3318 H       1  UNL1        0.0000
     45 C           4.1218   12.1833   11.5722 C.ar    1  UNL1        0.0000
     46 H           3.7855   12.2054   10.5464 H       1  UNL1        0.0000
     47 C           3.7066   13.1740   12.4629 C.ar    1  UNL1        0.0000
     48 H           3.0492   13.9592   12.1196 H       1  UNL1        0.0000
     49 C           4.1285   13.1592   13.7700 C.ar    1  UNL1        0.0000
     50 H           3.7897   13.9414   14.4302 H       1  UNL1        0.0000
     51 C           4.9841   12.1549   14.2497 C.ar    1  UNL1        0.0000
     52 C           5.4600   12.0984   15.6114 C.ar    1  UNL1        0.0000
     53 C           5.1065   13.0558   16.5761 C.ar    1  UNL1        0.0000
     54 H           4.4545   13.8723   16.3089 H       1  UNL1        0.0000
     55 C           5.5749   12.9820   17.8650 C.ar    1  UNL1        0.0000
     56 H           5.2842   13.7324   18.5858 H       1  UNL1        0.0000
     57 C           6.4273   11.9461   18.2452 C.ar    1  UNL1        0.0000
     58 H           6.8008   11.8886   19.2557 H       1  UNL1        0.0000
     59 C           6.7923   10.9950   17.3266 C.ar    1  UNL1        0.0000
     60 H           7.4578   10.1930   17.6224 H       1  UNL1        0.0000
     61 C           6.3174   11.0430   16.0086 C.ar    1  UNL1        0.0000
@<TRIPOS>BOND
     1    46    45    1
     2    18    17    1
     3    20    17    1
     4    44    43    1
     5    19    17    1
     6    45    43   ar
     7    45    47   ar
     8    17     2    1
     9    43    42   ar
    10    48    47    1
    11    47    49   ar
    12    41    40    1
    13    23    21    1
    14    42    40   ar
    15    42    51   ar
    16    27    25    1
    17     2    21    1
    18     2    25    1
    19     2    14    1
    20    24    21    1
    21    49    51   ar
    22    49    50    1
    23    21    22    1
    24    40    39   ar
    25    15    14    1
    26    16    14    1
    27    25    26    1
    28    25     1    1
    29    51    52   ar
    30    14    13    1
    31    38    37    1
    32    39     1    1
    33    39    61   ar
    34    36    35    1
    35    37    35   ar
    36    37    28   ar
    37    52    61   ar
    38    52    53   ar
    39    35    33   ar
    40     1    28    1
    41    13     3    1
    42    13    11    1
    43    28    29   ar
    44    61    59   ar
    45     4     3    1
    46    12    11    1
    47    54    53    1
    48    33    34    1
    49    33    31   ar
    50     3     5    1
    51    11     9    2
    52    53    55   ar
    53    29    31   ar
    54    29    30    1
    55    31    32    1
    56    59    60    1
    57    59    57   ar
    58    55    57   ar
    59    55    56    1
    60     9    10    1
    61     9     7    1
    62     5     6    1
    63     5     7    2
    64    57    58    1
    65     7     8    1
