@<TRIPOS>MOLECULE
1,3,5,7,9,11,13
 59 62 0 0 0
SMALL
GASTEIGER

@<TRIPOS>ATOM
      1 P           1.8500    2.8022    2.7567 P.3     1  UNL1        0.0000
      2 SI          4.1130    3.2406    4.9476 Si      1  UNL1        0.0000
      3 C           1.5926    3.7291   -0.3917 C.2     1  UNL1        0.0000
      4 H           0.5209    3.8842   -0.3312 H       1  UNL1        0.0000
      5 C           2.1314    2.7890   -1.2769 C.2     1  UNL1        0.0000
      6 H           1.4675    2.1927   -1.8930 H       1  UNL1        0.0000
      7 C           3.5331    2.6481   -1.4284 C.3     1  UNL1        0.0000
      8 H           3.9311    1.9483   -2.1524 H       1  UNL1        0.0000
      9 C           4.3910    3.4709   -0.6858 C.2     1  UNL1        0.0000
     10 H           5.4632    3.4135   -0.8384 H       1  UNL1        0.0000
     11 C           3.8748    4.4015    0.2400 C.2     1  UNL1        0.0000
     12 H           4.5408    5.0710    0.7705 H       1  UNL1        0.0000
     13 C           2.4728    4.4838    0.4416 C.3     1  UNL1        0.0000
     14 C           1.9181    5.2954    1.5526 C.ar    1  UNL1        0.0000
     15 C           1.7623    6.6719    1.4876 C.ar    1  UNL1        0.0000
     16 H           2.0331    7.2003    0.5847 H       1  UNL1        0.0000
     17 C           1.2654    7.3628    2.5811 C.ar    1  UNL1        0.0000
     18 H           1.1533    8.4352    2.5280 H       1  UNL1        0.0000
     19 C           0.9152    6.6852    3.7380 C.ar    1  UNL1        0.0000
     20 H           0.5272    7.2313    4.5849 H       1  UNL1        0.0000
     21 C           1.0666    5.3112    3.8116 C.ar    1  UNL1        0.0000
     22 H           0.7946    4.7743    4.7081 H       1  UNL1        0.0000
     23 C           1.5763    4.6105    2.7275 C.ar    1  UNL1        0.0000
     24 C           0.1519    2.1557    2.7908 C.ar    1  UNL1        0.0000
     25 C          -0.9347    2.9179    2.3742 C.ar    1  UNL1        0.0000
     26 H          -0.7911    3.9471    2.0719 H       1  UNL1        0.0000
     27 C          -2.2027    2.3648    2.3551 C.ar    1  UNL1        0.0000
     28 H          -3.0439    2.9629    2.0350 H       1  UNL1        0.0000
     29 C          -2.3925    1.0473    2.7367 C.ar    1  UNL1        0.0000
     30 H          -3.3826    0.6167    2.7122 H       1  UNL1        0.0000
     31 C          -1.3111    0.2807    3.1410 C.ar    1  UNL1        0.0000
     32 H          -1.4560   -0.7504    3.4264 H       1  UNL1        0.0000
     33 C          -0.0432    0.8290    3.1679 C.ar    1  UNL1        0.0000
     34 H           0.8059    0.2269    3.4558 H       1  UNL1        0.0000
     35 C           2.5083    2.3389    4.3740 C.3     1  UNL1        0.0000
     36 H           2.7423    1.2773    4.2643 H       1  UNL1        0.0000
     37 H           1.7024    2.4410    5.1038 H       1  UNL1        0.0000
     38 C           3.5832    4.3095    6.4431 C.3     1  UNL1        0.0000
     39 H           3.1193    3.7094    7.2198 H       1  UNL1        0.0000
     40 H           2.8870    5.0964    6.1694 H       1  UNL1        0.0000
     41 H           4.4542    4.7882    6.8771 H       1  UNL1        0.0000
     42 C           5.3759    1.9255    5.4801 C.3     1  UNL1        0.0000
     43 H           6.2706    2.3908    5.8801 H       1  UNL1        0.0000
     44 H           5.6614    1.3103    4.6323 H       1  UNL1        0.0000
     45 H           4.9718    1.2752    6.2500 H       1  UNL1        0.0000
     46 C           4.8413    4.4095    3.6182 C.3     1  UNL1        0.0000
     47 H           5.4081    3.8003    2.9162 H       1  UNL1        0.0000
     48 H           4.0190    4.8795    3.0810 H       1  UNL1        0.0000
     49 C           5.7090    5.4637    4.2133 C.ar    1  UNL1        0.0000
     50 C           5.1967    6.7204    4.5136 C.ar    1  UNL1        0.0000
     51 H           4.1608    6.9379    4.2881 H       1  UNL1        0.0000
     52 C           5.9952    7.6910    5.0913 C.ar    1  UNL1        0.0000
     53 H           5.5821    8.6638    5.3177 H       1  UNL1        0.0000
     54 C           7.3217    7.4190    5.3790 C.ar    1  UNL1        0.0000
     55 H           7.9461    8.1759    5.8305 H       1  UNL1        0.0000
     56 C           7.8434    6.1708    5.0814 C.ar    1  UNL1        0.0000
     57 H           8.8791    5.9534    5.2998 H       1  UNL1        0.0000
     58 C           7.0431    5.2025    4.5041 C.ar    1  UNL1        0.0000
     59 H           7.4497    4.2304    4.2677 H       1  UNL1        0.0000
@<TRIPOS>BOND
     1     8     7    1
     2     6     5    1
     3     7     5    1
     4     7     9    1
     5     5     3    2
     6    10     9    1
     7     9    11    2
     8     3     4    1
     9     3    13    1
    10    11    13    1
    11    11    12    1
    12    13    14    1
    13    16    15    1
    14    15    14   ar
    15    15    17   ar
    16    14    23   ar
    17    28    27    1
    18    26    25    1
    19    27    25   ar
    20    27    29   ar
    21    25    24   ar
    22    18    17    1
    23    17    19   ar
    24    30    29    1
    25    23     1    1
    26    23    21   ar
    27    29    31   ar
    28     1    24    1
    29     1    35    1
    30    24    33   ar
    31    47    46    1
    32    48    46    1
    33    31    33   ar
    34    31    32    1
    35    33    34    1
    36    46    49    1
    37    46     2    1
    38    19    21   ar
    39    19    20    1
    40    21    22    1
    41    49    58   ar
    42    49    50   ar
    43    36    35    1
    44    59    58    1
    45    51    50    1
    46    35     2    1
    47    35    37    1
    48    58    56   ar
    49    50    52   ar
    50    44    42    1
    51     2    42    1
    52     2    38    1
    53    56    57    1
    54    56    54   ar
    55    52    53    1
    56    52    54   ar
    57    54    55    1
    58    42    43    1
    59    42    45    1
    60    40    38    1
    61    38    41    1
    62    38    39    1
