@<TRIPOS>MOLECULE
1,3,4,5,6,7
 40 40 0 0 0
SMALL
GASTEIGER

@<TRIPOS>ATOM
      1 P          -0.3943    7.8822    7.4244 P.3     1  UNL1        0.0000
      2 SI          0.1112    8.4641   10.4370 Si      1  UNL1        0.0000
      3 N           1.7118    7.9882    9.9411 N.3     1  UNL1        0.0000
      4 C          -0.1869    6.2019    6.8880 C.2     1  UNL1        0.0000
      5 C          -0.3355    5.2844    7.9367 C.2     1  UNL1        0.0000
      6 C          -0.5769    5.9175    9.1909 C.2     1  UNL1        0.0000
      7 C          -0.6369    7.3225    9.1045 C.3     1  UNL1        0.0000
      8 C           0.0464    5.8198    5.4541 C.3     1  UNL1        0.0000
      9 C          -0.3257    3.7943    7.7483 C.3     1  UNL1        0.0000
     10 C          -0.8734    5.1392   10.4428 C.3     1  UNL1        0.0000
     11 C          -0.3087    8.0745   12.2638 C.3     1  UNL1        0.0000
     12 C          -0.4262   10.2586   10.0410 C.3     1  UNL1        0.0000
     13 C           2.9616    8.6427   10.2789 C.3     1  UNL1        0.0000
     14 C           3.2250    9.7571    9.2499 C.3     1  UNL1        0.0000
     15 C           2.9052    9.2495   11.6868 C.3     1  UNL1        0.0000
     16 C           4.1110    7.6194   10.2421 C.3     1  UNL1        0.0000
     17 H           0.1126    6.7142    4.8343 H       1  UNL1        0.0000
     18 H          -0.7724    5.1997    5.0836 H       1  UNL1        0.0000
     19 H           0.9766    5.2562    5.3423 H       1  UNL1        0.0000
     20 H           0.0565    3.2936    8.6367 H       1  UNL1        0.0000
     21 H           0.2965    3.5138    6.8992 H       1  UNL1        0.0000
     22 H          -1.3411    3.4371    7.5589 H       1  UNL1        0.0000
     23 H          -1.6155    4.3680   10.2312 H       1  UNL1        0.0000
     24 H          -1.2695    5.7970   11.2114 H       1  UNL1        0.0000
     25 H           0.0259    4.6491   10.8236 H       1  UNL1        0.0000
     26 H           0.1902    7.1758   12.6133 H       1  UNL1        0.0000
     27 H          -1.3771    7.9492   12.4036 H       1  UNL1        0.0000
     28 H           0.0031    8.8956   12.8997 H       1  UNL1        0.0000
     29 H          -0.2482   10.4992    8.9960 H       1  UNL1        0.0000
     30 H           0.1029   10.9842   10.6498 H       1  UNL1        0.0000
     31 H          -1.4864   10.3871   10.2317 H       1  UNL1        0.0000
     32 H           2.4562   10.5226    9.3298 H       1  UNL1        0.0000
     33 H           3.1982    9.3403    8.2405 H       1  UNL1        0.0000
     34 H           4.1978   10.2120    9.4205 H       1  UNL1        0.0000
     35 H           2.1384   10.0169   11.7402 H       1  UNL1        0.0000
     36 H           3.8636    9.6976   11.9371 H       1  UNL1        0.0000
     37 H           2.6780    8.4745   12.4141 H       1  UNL1        0.0000
     38 H           4.2491    7.2255    9.2306 H       1  UNL1        0.0000
     39 H           3.8903    6.7925   10.9203 H       1  UNL1        0.0000
     40 H           5.0406    8.0902   10.5567 H       1  UNL1        0.0000
@<TRIPOS>BOND
     1    17     8    1
     2    18     8    1
     3    19     8    1
     4     8     4    1
     5     4     1    2
     6     4     5    1
     7    21     9    1
     8     1     7    1
     9    22     9    1
    10     9     5    1
    11     9    20    1
    12     5     6    2
    13    33    14    1
    14    29    12    1
    15     7     6    1
    16     7     2    1
    17     6    10    1
    18    38    16    1
    19    14    32    1
    20    14    34    1
    21    14    13    1
    22     3    13    1
    23     3     2    1
    24    12    31    1
    25    12     2    1
    26    12    30    1
    27    23    10    1
    28    16    13    1
    29    16    40    1
    30    16    39    1
    31    13    15    1
    32     2    11    1
    33    10    25    1
    34    10    24    1
    35    15    35    1
    36    15    36    1
    37    15    37    1
    38    11    27    1
    39    11    26    1
    40    11    28    1
