@<TRIPOS>MOLECULE
1,2,3,4,42,44,46
 59 65 0 0 0
SMALL
GASTEIGER

@<TRIPOS>ATOM
      1 O           2.4394    4.3861    5.3899 O.3     1  UNL1        0.0000
      2 N           4.2364    2.5676    6.2079 N.3     1  UNL1        0.0000
      3 C           5.3095    4.5030    4.1374 C.3     1  UNL1        0.0000
      4 C           4.2704    5.3699    3.3816 C.3     1  UNL1        0.0000
      5 H           3.7124    6.0979    3.9783 H       1  UNL1        0.0000
      6 C           5.4470    4.7274    5.6434 C.3     1  UNL1        0.0000
      7 H           6.4063    5.2061    5.8806 H       1  UNL1        0.0000
      8 H           4.6668    5.4043    6.0004 H       1  UNL1        0.0000
      9 C           5.4181    3.4281    6.4561 C.3     1  UNL1        0.0000
     10 H           5.4865    3.6689    7.5288 H       1  UNL1        0.0000
     11 H           6.3133    2.8584    6.1907 H       1  UNL1        0.0000
     12 C           4.6361    1.1781    6.4726 C.3     1  UNL1        0.0000
     13 H           4.9992    1.0593    7.5038 H       1  UNL1        0.0000
     14 H           5.4349    0.8868    5.7898 H       1  UNL1        0.0000
     15 H           3.7975    0.4988    6.3247 H       1  UNL1        0.0000
     16 C           3.1384    2.8968    7.1330 C.3     1  UNL1        0.0000
     17 H           3.5205    2.9290    8.1629 H       1  UNL1        0.0000
     18 H           2.4009    2.0907    7.0701 H       1  UNL1        0.0000
     19 C           2.3961    4.2171    6.7630 C.3     1  UNL1        0.0000
     20 C           2.9185    5.4602    7.5084 C.ar    1  UNL1        0.0000
     21 C           3.3709    5.4353    8.8218 C.ar    1  UNL1        0.0000
     22 H           3.4106    4.5125    9.3810 H       1  UNL1        0.0000
     23 C           3.7661    6.6012    9.4552 C.ar    1  UNL1        0.0000
     24 H           4.1237    6.5572   10.4736 H       1  UNL1        0.0000
     25 C           3.6984    7.8162    8.7976 C.ar    1  UNL1        0.0000
     26 H           4.0086    8.7224    9.2952 H       1  UNL1        0.0000
     27 C           3.2141    7.8596    7.5016 C.ar    1  UNL1        0.0000
     28 H           3.1371    8.8026    6.9813 H       1  UNL1        0.0000
     29 C           2.8228    6.6945    6.8708 C.ar    1  UNL1        0.0000
     30 H           2.4365    6.7272    5.8626 H       1  UNL1        0.0000
     31 C           0.9573    4.1665    7.3130 C.ar    1  UNL1        0.0000
     32 C          -0.0193    4.9332    6.6895 C.ar    1  UNL1        0.0000
     33 H           0.2431    5.4798    5.8001 H       1  UNL1        0.0000
     34 C          -1.3090    4.9844    7.1844 C.ar    1  UNL1        0.0000
     35 H          -2.0513    5.5882    6.6835 H       1  UNL1        0.0000
     36 C          -1.6450    4.2705    8.3216 C.ar    1  UNL1        0.0000
     37 H          -2.6511    4.3064    8.7118 H       1  UNL1        0.0000
     38 C          -0.6769    3.5146    8.9585 C.ar    1  UNL1        0.0000
     39 H          -0.9262    2.9589    9.8507 H       1  UNL1        0.0000
     40 C           0.6160    3.4671    8.4652 C.ar    1  UNL1        0.0000
     41 H           1.3474    2.8788    8.9977 H       1  UNL1        0.0000
     42 B           3.6142    4.5565    2.1011 B       1  UNL1        0.0000
     43 H           2.5096    4.8345    1.7328 H       1  UNL1        0.0000
     44 B           4.4548    3.0180    2.0143 B       1  UNL1        0.0000
     45 H           4.0716    2.0373    1.4495 H       1  UNL1        0.0000
     46 B           5.4748    3.0217    3.4093 B       1  UNL1        0.0000
     47 H           5.8704    2.0898    4.0493 H       1  UNL1        0.0000
     48 B           5.9235    5.8373    3.1790 B       1  UNL1        0.0000
     49 H           6.2899    6.7874    3.7734 H       1  UNL1        0.0000
     50 B           4.8099    5.8655    1.8192 B       1  UNL1        0.0000
     51 H           4.4472    6.9112    1.4109 H       1  UNL1        0.0000
     52 B           4.9803    4.3507    0.9439 B       1  UNL1        0.0000
     53 H           4.8077    4.2954   -0.2230 H       1  UNL1        0.0000
     54 B           6.1939    3.3732    1.7922 B       1  UNL1        0.0000
     55 H           6.9023    2.5987    1.2490 H       1  UNL1        0.0000
     56 B           6.7421    4.2832    3.1861 B       1  UNL1        0.0000
     57 H           7.7686    4.1862    3.7630 H       1  UNL1        0.0000
     58 B           6.4235    5.1434    1.6638 B       1  UNL1        0.0000
     59 H           7.2788    5.6237    1.0123 H       1  UNL1        0.0000
@<TRIPOS>BOND
     1    53    52    1
     2    52    54    1
     3    52    50    1
     4    52    44    1
     5    59    58    1
     6    55    54    1
     7    51    50    1
     8    45    44    1
     9    58    54    1
    10    58    48    1
    11    43    42    1
    12    54    56    1
    13    50    48    1
    14    50     4    1
    15    44    42    1
    16    44    46    1
    17    42     4    1
    18    48    56    1
    19    48    49    1
    20    56    57    1
    21    56     3    1
    22     4     5    1
    23     4     3    1
    24    46    47    1
    25    46     3    1
    26     3     6    1
    27     1    19    1
    28     6     7    1
    29     6     8    1
    30     6     9    1
    31    14    12    1
    32    33    32    1
    33    30    29    1
    34    11     9    1
    35     2     9    1
    36     2    12    1
    37     2    16    1
    38    15    12    1
    39     9    10    1
    40    12    13    1
    41    35    34    1
    42    32    34   ar
    43    32    31   ar
    44    19    16    1
    45    19    31    1
    46    19    20    1
    47    29    27   ar
    48    29    20   ar
    49    28    27    1
    50    18    16    1
    51    16    17    1
    52    34    36   ar
    53    31    40   ar
    54    27    25   ar
    55    20    21   ar
    56    36    37    1
    57    36    38   ar
    58    40    38   ar
    59    40    41    1
    60    25    26    1
    61    25    23   ar
    62    21    22    1
    63    21    23   ar
    64    38    39    1
    65    23    24    1
