@<TRIPOS>MOLECULE
2,3,4
 24 24 0 0 0
SMALL
GASTEIGER

@<TRIPOS>ATOM
      1 SI          5.2159    7.4867    2.6736 Si      1  UNL1        0.0000
      2 N           3.7642    6.2643    0.6083 N.pl3   1  UNL1        0.0000
      3 C           5.7103    4.7257    2.3025 C.3     1  UNL1        0.0000
      4 C           5.1628    5.6862    3.1949 C.3     1  UNL1        0.0000
      5 C           4.1068    8.6590    3.6858 C.3     1  UNL1        0.0000
      6 C           6.9805    8.1993    2.5309 C.3     1  UNL1        0.0000
      7 C           4.4747    7.3675    0.9018 C.3     1  UNL1        0.0000
      8 C           4.6281    8.3899   -0.0272 C.2     1  UNL1        0.0000
      9 C           4.0405    8.3042   -1.2753 C.2     1  UNL1        0.0000
     10 C           3.2930    7.1718   -1.5580 C.2     1  UNL1        0.0000
     11 C           3.1839    6.1865   -0.5948 C.2     1  UNL1        0.0000
     12 H           6.2426    5.0859    1.4207 H       1  UNL1        0.0000
     13 H           6.1705    3.8352    2.7268 H       1  UNL1        0.0000
     14 H           5.1744    5.4373    4.2554 H       1  UNL1        0.0000
     15 H           4.4848    8.7579    4.6978 H       1  UNL1        0.0000
     16 H           3.0852    8.2965    3.7488 H       1  UNL1        0.0000
     17 H           4.0813    9.6510    3.2457 H       1  UNL1        0.0000
     18 H           7.4694    8.1860    3.4993 H       1  UNL1        0.0000
     19 H           7.5989    7.6292    1.8442 H       1  UNL1        0.0000
     20 H           6.9659    9.2297    2.1900 H       1  UNL1        0.0000
     21 H           5.2117    9.2546    0.2472 H       1  UNL1        0.0000
     22 H           4.1526    9.0935   -2.0034 H       1  UNL1        0.0000
     23 H           2.7999    7.0475   -2.5090 H       1  UNL1        0.0000
     24 H           2.5975    5.2974   -0.7996 H       1  UNL1        0.0000
@<TRIPOS>BOND
     1    23    10    1
     2    22     9    1
     3    10     9    1
     4    10    11    2
     5     9     8    2
     6    24    11    1
     7    11     2    1
     8     8    21    1
     9     8     7    1
    10     2     7    1
    11     7     1    1
    12    12     3    1
    13    19     6    1
    14    20     6    1
    15     3    13    1
    16     3     4    1
    17     6     1    1
    18     6    18    1
    19     1     4    1
    20     1     5    1
    21     4    14    1
    22    17     5    1
    23     5    16    1
    24     5    15    1
