@<TRIPOS>MOLECULE
2,3,7
 43 44 0 0 0
SMALL
GASTEIGER

@<TRIPOS>ATOM
      1 SI          3.2944    7.3456   -0.3817 Si      1  UNL1        0.0000
      2 N           3.2210    5.9076    0.7360 N.3     1  UNL1        0.0000
      3 C           2.3811    8.6327    0.6246 C.3     1  UNL1        0.0000
      4 C           2.8146    9.8947    1.0911 C.2     1  UNL1        0.0000
      5 C           1.7703   10.5127    1.7950 C.2     1  UNL1        0.0000
      6 C           0.6491    9.6631    1.7787 C.3     1  UNL1        0.0000
      7 C           0.9953    8.4839    1.0697 C.3     1  UNL1        0.0000
      8 C           4.1560   10.5103    0.8403 C.3     1  UNL1        0.0000
      9 H           4.3148   11.3605    1.4991 H       1  UNL1        0.0000
     10 H           4.2239   10.8679   -0.1885 H       1  UNL1        0.0000
     11 H           4.9584    9.7943    0.9994 H       1  UNL1        0.0000
     12 C           1.8564   11.8640    2.4371 C.3     1  UNL1        0.0000
     13 H           2.6300   11.8850    3.2068 H       1  UNL1        0.0000
     14 H           0.9128   12.1376    2.9006 H       1  UNL1        0.0000
     15 H           2.1002   12.6253    1.6964 H       1  UNL1        0.0000
     16 C          -0.7208    9.9612    2.3191 C.3     1  UNL1        0.0000
     17 H          -0.6795   10.7254    3.0920 H       1  UNL1        0.0000
     18 H          -1.1784    9.0698    2.7531 H       1  UNL1        0.0000
     19 H          -1.3763   10.3233    1.5240 H       1  UNL1        0.0000
     20 C          -0.0206    7.5518    0.4417 C.3     1  UNL1        0.0000
     21 H           0.3857    6.5544    0.2632 H       1  UNL1        0.0000
     22 H          -0.3421    7.9619   -0.5198 H       1  UNL1        0.0000
     23 H          -0.9094    7.4592    1.0672 H       1  UNL1        0.0000
     24 C           2.4484    6.9451   -2.0551 C.3     1  UNL1        0.0000
     25 H           2.9545    6.1496   -2.5932 H       1  UNL1        0.0000
     26 H           2.4771    7.8296   -2.6826 H       1  UNL1        0.0000
     27 H           1.4071    6.6656   -1.9492 H       1  UNL1        0.0000
     28 C           5.0937    7.7553   -0.8806 C.3     1  UNL1        0.0000
     29 H           5.7636    7.8315   -0.0317 H       1  UNL1        0.0000
     30 H           5.1209    8.7041   -1.4030 H       1  UNL1        0.0000
     31 H           5.4931    7.0038   -1.5549 H       1  UNL1        0.0000
     32 C           2.7494    4.6508    0.1549 C.3     1  UNL1        0.0000
     33 H           1.9556    4.8229   -0.5684 H       1  UNL1        0.0000
     34 H           2.3621    4.0127    0.9579 H       1  UNL1        0.0000
     35 C           3.9852    3.9904   -0.4741 C.3     1  UNL1        0.0000
     36 H           3.9095    2.9048   -0.4570 H       1  UNL1        0.0000
     37 H           4.0941    4.3084   -1.5102 H       1  UNL1        0.0000
     38 C           5.1516    4.5096    0.3794 C.3     1  UNL1        0.0000
     39 H           5.8908    5.0202   -0.2348 H       1  UNL1        0.0000
     40 H           5.6545    3.7071    0.9162 H       1  UNL1        0.0000
     41 C           4.4855    5.4943    1.3588 C.3     1  UNL1        0.0000
     42 H           4.2628    4.9625    2.2984 H       1  UNL1        0.0000
     43 H           5.1152    6.3563    1.5853 H       1  UNL1        0.0000
@<TRIPOS>BOND
     1    26    24    1
     2    25    24    1
     3    24    27    1
     4    24     1    1
     5    31    28    1
     6    37    35    1
     7    30    28    1
     8    28     1    1
     9    28    29    1
    10    33    32    1
    11    22    20    1
    12    35    36    1
    13    35    32    1
    14    35    38    1
    15     1     3    1
    16     1     2    1
    17    39    38    1
    18    10     8    1
    19    32     2    1
    20    32    34    1
    21    21    20    1
    22    38    40    1
    23    38    41    1
    24    20    23    1
    25    20     7    1
    26     3     7    1
    27     3     4    1
    28     2    41    1
    29     8    11    1
    30     8     4    1
    31     8     9    1
    32     7     6    1
    33     4     5    2
    34    41    43    1
    35    41    42    1
    36    19    16    1
    37    15    12    1
    38     6     5    1
    39     6    16    1
    40     5    12    1
    41    16    18    1
    42    16    17    1
    43    12    14    1
    44    12    13    1
