@<TRIPOS>MOLECULE
2,52,61
 95 102 0 0 0
SMALL
GASTEIGER

@<TRIPOS>ATOM
      1 SI          9.5753    3.3509    4.0296 Si      1  UNL1        0.0000
      2 N          11.0443    3.2335    4.9221 N.pl3   1  UNL1        0.0000
      3 C          11.1999    4.0331    6.0476 C.ar    1  UNL1        0.0000
      4 C          10.7974    3.5819    7.3183 C.ar    1  UNL1        0.0000
      5 C          10.9318    4.4140    8.4167 C.ar    1  UNL1        0.0000
      6 H          10.6150    4.0608    9.3871 H       1  UNL1        0.0000
      7 C          11.4611    5.6918    8.3097 C.ar    1  UNL1        0.0000
      8 C          11.8776    6.1308    7.0603 C.ar    1  UNL1        0.0000
      9 H          12.2975    7.1213    6.9584 H       1  UNL1        0.0000
     10 C          11.7476    5.3273    5.9443 C.ar    1  UNL1        0.0000
     11 C          11.6035    6.5631    9.5208 C.3     1  UNL1        0.0000
     12 H          12.4982    6.2880   10.0808 H       1  UNL1        0.0000
     13 H          10.7475    6.4442   10.1818 H       1  UNL1        0.0000
     14 H          11.6903    7.6093    9.2369 H       1  UNL1        0.0000
     15 C          10.2416    2.1835    7.4660 C.3     1  UNL1        0.0000
     16 H           9.5913    2.0075    6.6019 H       1  UNL1        0.0000
     17 C           9.3970    2.0344    8.7103 C.ar    1  UNL1        0.0000
     18 C           9.9450    1.6128    9.9164 C.ar    1  UNL1        0.0000
     19 H          10.9962    1.3676    9.9699 H       1  UNL1        0.0000
     20 C           9.1561    1.5048   11.0481 C.ar    1  UNL1        0.0000
     21 H           9.5956    1.1753   11.9787 H       1  UNL1        0.0000
     22 C           7.8090    1.8192   10.9913 C.ar    1  UNL1        0.0000
     23 H           7.1942    1.7349   11.8756 H       1  UNL1        0.0000
     24 C           7.2559    2.2407    9.7942 C.ar    1  UNL1        0.0000
     25 H           6.2055    2.4876    9.7392 H       1  UNL1        0.0000
     26 C           8.0442    2.3453    8.6625 C.ar    1  UNL1        0.0000
     27 H           7.6086    2.6743    7.7316 H       1  UNL1        0.0000
     28 C          11.3362    1.1398    7.4472 C.ar    1  UNL1        0.0000
     29 C          10.9831   -0.1987    7.3057 C.ar    1  UNL1        0.0000
     30 H           9.9405   -0.4638    7.1952 H       1  UNL1        0.0000
     31 C          11.9459   -1.1909    7.3247 C.ar    1  UNL1        0.0000
     32 H          11.6561   -2.2257    7.2123 H       1  UNL1        0.0000
     33 C          13.2800   -0.8599    7.4971 C.ar    1  UNL1        0.0000
     34 H          14.0317   -1.6359    7.5225 H       1  UNL1        0.0000
     35 C          13.6401    0.4683    7.6442 C.ar    1  UNL1        0.0000
     36 H          14.6778    0.7342    7.7898 H       1  UNL1        0.0000
     37 C          12.6758    1.4616    7.6165 C.ar    1  UNL1        0.0000
     38 H          12.9636    2.4937    7.7455 H       1  UNL1        0.0000
     39 C          12.1884    5.7669    4.5689 C.3     1  UNL1        0.0000
     40 H          11.3088    5.7155    3.9147 H       1  UNL1        0.0000
     41 C          12.7182    7.1780    4.5113 C.ar    1  UNL1        0.0000
     42 C          13.9967    7.4888    4.9598 C.ar    1  UNL1        0.0000
     43 H          14.6261    6.7071    5.3595 H       1  UNL1        0.0000
     44 C          14.4662    8.7883    4.8980 C.ar    1  UNL1        0.0000
     45 H          15.4614    9.0170    5.2510 H       1  UNL1        0.0000
     46 C          13.6650    9.7948    4.3851 C.ar    1  UNL1        0.0000
     47 H          14.0329   10.8091    4.3361 H       1  UNL1        0.0000
     48 C          12.3918    9.4933    3.9335 C.ar    1  UNL1        0.0000
     49 H          11.7624   10.2730    3.5298 H       1  UNL1        0.0000
     50 C          11.9228    8.1928    3.9953 C.ar    1  UNL1        0.0000
     51 H          10.9293    7.9599    3.6380 H       1  UNL1        0.0000
     52 C          13.2309    4.8152    4.0175 C.3     1  UNL1        0.0000
     53 C          13.5552    4.8892    2.6464 C.2     1  UNL1        0.0000
     54 H          12.9388    5.4974    1.9992 H       1  UNL1        0.0000
     55 C          14.6896    4.2806    2.1497 C.2     1  UNL1        0.0000
     56 H          14.9280    4.3625    1.0992 H       1  UNL1        0.0000
     57 C          15.5529    3.5932    3.0020 C.2     1  UNL1        0.0000
     58 H          16.4594    3.1557    2.6109 H       1  UNL1        0.0000
     59 C          15.2621    3.5001    4.3485 C.2     1  UNL1        0.0000
     60 H          15.9516    3.0047    5.0178 H       1  UNL1        0.0000
     61 C          14.0983    4.0808    4.8689 C.3     1  UNL1        0.0000
     62 H          13.9757    4.1472    5.9442 H       1  UNL1        0.0000
     63 C           8.1436    3.9363    5.1320 C.ar    1  UNL1        0.0000
     64 C           8.2390    5.0953    5.8949 C.ar    1  UNL1        0.0000
     65 H           9.1551    5.6663    5.8843 H       1  UNL1        0.0000
     66 C           7.1808    5.5303    6.6727 C.ar    1  UNL1        0.0000
     67 H           7.2820    6.4299    7.2628 H       1  UNL1        0.0000
     68 C           5.9942    4.8171    6.6923 C.ar    1  UNL1        0.0000
     69 H           5.1655    5.1558    7.2974 H       1  UNL1        0.0000
     70 C           5.8768    3.6663    5.9309 C.ar    1  UNL1        0.0000
     71 H           4.9540    3.1032    5.9387 H       1  UNL1        0.0000
     72 C           6.9438    3.2325    5.1634 C.ar    1  UNL1        0.0000
     73 H           6.8459    2.3296    4.5772 H       1  UNL1        0.0000
     74 C           9.6507    4.5680    2.5561 C.ar    1  UNL1        0.0000
     75 C           8.8901    5.7330    2.5054 C.ar    1  UNL1        0.0000
     76 H           8.2049    5.9514    3.3126 H       1  UNL1        0.0000
     77 C           8.9976    6.6139    1.4432 C.ar    1  UNL1        0.0000
     78 H           8.3992    7.5142    1.4263 H       1  UNL1        0.0000
     79 C           9.8681    6.3429    0.4011 C.ar    1  UNL1        0.0000
     80 H           9.9534    7.0294   -0.4290 H       1  UNL1        0.0000
     81 C          10.6275    5.1849    0.4293 C.ar    1  UNL1        0.0000
     82 H          11.3066    4.9649   -0.3831 H       1  UNL1        0.0000
     83 C          10.5173    4.3125    1.4970 C.ar    1  UNL1        0.0000
     84 H          11.1194    3.4136    1.5187 H       1  UNL1        0.0000
     85 C           9.0554    1.6711    3.3075 C.ar    1  UNL1        0.0000
     86 C           8.4297    1.6099    2.0670 C.ar    1  UNL1        0.0000
     87 H           8.2793    2.5218    1.5068 H       1  UNL1        0.0000
     88 C           7.9994    0.4059    1.5380 C.ar    1  UNL1        0.0000
     89 H           7.5167    0.3828    0.5709 H       1  UNL1        0.0000
     90 C           8.1848   -0.7689    2.2472 C.ar    1  UNL1        0.0000
     91 H           7.8499   -1.7105    1.8363 H       1  UNL1        0.0000
     92 C           8.8005   -0.7279    3.4869 C.ar    1  UNL1        0.0000
     93 H           8.9476   -1.6398    4.0484 H       1  UNL1        0.0000
     94 C           9.2256    0.4809    4.0073 C.ar    1  UNL1        0.0000
     95 H           9.7112    0.5045    4.9703 H       1  UNL1        0.0000
@<TRIPOS>BOND
     1    80    79    1
     2    82    81    1
     3    79    81   ar
     4    79    77   ar
     5    81    83   ar
     6    89    88    1
     7    56    55    1
     8    78    77    1
     9    77    75   ar
    10    83    84    1
    11    83    74   ar
    12    87    86    1
    13    88    86   ar
    14    88    90   ar
    15    91    90    1
    16    54    53    1
    17    86    85   ar
    18    55    53    2
    19    55    57    1
    20    90    92   ar
    21    75    74   ar
    22    75    76    1
    23    74     1    1
    24    58    57    1
    25    53    52    1
    26    57    59    2
    27    85    94   ar
    28    85     1    1
    29    92    94   ar
    30    92    93    1
    31    49    48    1
    32    51    50    1
    33    40    39    1
    34    48    50   ar
    35    48    46   ar
    36    50    41   ar
    37    94    95    1
    38    52    39    1
    39    52    61    1
    40     1     2    1
    41     1    63    1
    42    47    46    1
    43    59    61    1
    44    59    60    1
    45    46    44   ar
    46    41    39    1
    47    41    42   ar
    48    39    10    1
    49    73    72    1
    50    61    62    1
    51    44    42   ar
    52    44    45    1
    53     2     3    1
    54    42    43    1
    55    63    72   ar
    56    63    64   ar
    57    72    70   ar
    58    65    64    1
    59    64    66   ar
    60    70    71    1
    61    70    68   ar
    62    10     3   ar
    63    10     8   ar
    64     3     4   ar
    65    16    15    1
    66    66    68   ar
    67    66    67    1
    68    68    69    1
    69     9     8    1
    70     8     7   ar
    71    30    29    1
    72    32    31    1
    73    29    31   ar
    74    29    28   ar
    75     4    15    1
    76     4     5   ar
    77    31    33   ar
    78    28    15    1
    79    28    37   ar
    80    15    17    1
    81    33    34    1
    82    33    35   ar
    83    37    35   ar
    84    37    38    1
    85    35    36    1
    86    27    26    1
    87     7     5   ar
    88     7    11    1
    89     5     6    1
    90    26    17   ar
    91    26    24   ar
    92    17    18   ar
    93    14    11    1
    94    11    12    1
    95    11    13    1
    96    25    24    1
    97    24    22   ar
    98    18    19    1
    99    18    20   ar
   100    22    20   ar
   101    22    23    1
   102    20    21    1
