@<TRIPOS>MOLECULE
2,3,4
 44 44 0 0 0
SMALL
GASTEIGER

@<TRIPOS>ATOM
      1 SI          3.4760   -0.1735    8.7437 Si      1  UNL1        0.0000
      2 N           4.1503    1.2526    9.4276 N.3     1  UNL1        0.0000
      3 C           3.5643    0.3724    6.9171 C.2     1  UNL1        0.0000
      4 C           4.8382    0.6253    6.2593 C.3     1  UNL1        0.0000
      5 C           4.5721    0.9559    4.9069 C.2     1  UNL1        0.0000
      6 C           3.1845    0.9607    4.7252 C.2     1  UNL1        0.0000
      7 C           2.5728    0.6098    5.9520 C.2     1  UNL1        0.0000
      8 C           6.1951    0.1414    6.7297 C.3     1  UNL1        0.0000
      9 H           6.3599   -0.8830    6.3812 H       1  UNL1        0.0000
     10 H           6.2730    0.1427    7.8187 H       1  UNL1        0.0000
     11 H           7.0016    0.7565    6.3212 H       1  UNL1        0.0000
     12 C           5.6291    1.1342    3.8578 C.3     1  UNL1        0.0000
     13 H           6.4524    1.7477    4.2273 H       1  UNL1        0.0000
     14 H           5.2275    1.6023    2.9611 H       1  UNL1        0.0000
     15 H           6.0437    0.1651    3.5699 H       1  UNL1        0.0000
     16 C           2.4310    1.2412    3.4613 C.3     1  UNL1        0.0000
     17 H           3.0952    1.5820    2.6696 H       1  UNL1        0.0000
     18 H           1.6614    2.0036    3.6127 H       1  UNL1        0.0000
     19 H           1.9266    0.3393    3.1096 H       1  UNL1        0.0000
     20 C           1.0972    0.3975    6.0997 C.3     1  UNL1        0.0000
     21 H           0.5229    1.2264    5.6798 H       1  UNL1        0.0000
     22 H           0.8274    0.2710    7.1425 H       1  UNL1        0.0000
     23 H           0.7945   -0.5040    5.5614 H       1  UNL1        0.0000
     24 C           4.3595   -1.8740    8.9492 C.3     1  UNL1        0.0000
     25 H           5.4367   -1.8020    8.8453 H       1  UNL1        0.0000
     26 H           4.0097   -2.5849    8.2070 H       1  UNL1        0.0000
     27 H           4.1537   -2.3005    9.9267 H       1  UNL1        0.0000
     28 C           1.7175   -0.5901    9.4142 C.3     1  UNL1        0.0000
     29 H           1.7981   -1.0190   10.4075 H       1  UNL1        0.0000
     30 H           1.2214   -1.3244    8.7892 H       1  UNL1        0.0000
     31 H           1.0730    0.2804    9.4928 H       1  UNL1        0.0000
     32 C           4.7382    1.3888   10.7458 C.3     1  UNL1        0.0000
     33 C           4.0078    0.5504   11.8046 C.3     1  UNL1        0.0000
     34 H           2.9485    0.7931   11.8059 H       1  UNL1        0.0000
     35 H           4.4172    0.7493   12.7926 H       1  UNL1        0.0000
     36 H           4.1186   -0.5061   11.5841 H       1  UNL1        0.0000
     37 C           6.2187    0.9602   10.7108 C.3     1  UNL1        0.0000
     38 H           6.2865   -0.0945   10.4572 H       1  UNL1        0.0000
     39 H           6.6945    1.1180   11.6764 H       1  UNL1        0.0000
     40 H           6.7441    1.5413    9.9485 H       1  UNL1        0.0000
     41 C           4.6740    2.8704   11.1743 C.3     1  UNL1        0.0000
     42 H           5.0405    3.5040   10.3552 H       1  UNL1        0.0000
     43 H           5.2860    3.0393   12.0578 H       1  UNL1        0.0000
     44 H           3.6491    3.1515   11.4087 H       1  UNL1        0.0000
@<TRIPOS>BOND
     1    17    16    1
     2    14    12    1
     3    19    16    1
     4    16    18    1
     5    16     6    1
     6    15    12    1
     7    12    13    1
     8    12     5    1
     9     6     5    2
    10     6     7    1
    11     5     4    1
    12    23    20    1
    13    21    20    1
    14     7    20    1
    15     7     3    2
    16    20    22    1
    17     4     8    1
    18     4     3    1
    19    11     8    1
    20     9     8    1
    21     8    10    1
    22     3     1    1
    23    26    24    1
    24     1    24    1
    25     1    28    1
    26     1     2    1
    27    30    28    1
    28    25    24    1
    29    24    27    1
    30    28    31    1
    31    28    29    1
    32     2    32    1
    33    40    37    1
    34    42    41    1
    35    38    37    1
    36    37    32    1
    37    37    39    1
    38    32    41    1
    39    32    33    1
    40    41    44    1
    41    41    43    1
    42    36    33    1
    43    33    34    1
    44    33    35    1
