@<TRIPOS>MOLECULE
3,4,12
 54 56 0 0 0
SMALL
GASTEIGER

@<TRIPOS>ATOM
      1 P           0.4128    2.2963   11.8593 P.3     1  UNL1        0.0000
      2 SI          6.8975   -0.0710    8.5454 Si      1  UNL1        0.0000
      3 N           4.8465    0.8870   10.0104 N.3     1  UNL1        0.0000
      4 C           2.0190    1.4020   11.9594 C.2     1  UNL1        0.0000
      5 C           2.2281    0.4886   12.9311 C.2     1  UNL1        0.0000
      6 C           3.3802   -0.3862   13.0517 C.ar    1  UNL1        0.0000
      7 C           3.5364   -1.1621   14.2007 C.ar    1  UNL1        0.0000
      8 C           4.5504   -2.0924   14.3099 C.ar    1  UNL1        0.0000
      9 C           5.4187   -2.2954   13.2445 C.ar    1  UNL1        0.0000
     10 C           5.3016   -1.5338   12.1010 C.ar    1  UNL1        0.0000
     11 C           4.3206   -0.5372   11.9944 C.ar    1  UNL1        0.0000
     12 C           4.0718    0.2382   10.8126 C.3     1  UNL1        0.0000
     13 C           6.2994    0.9027   10.0946 C.3     1  UNL1        0.0000
     14 C           6.3362    0.9835    7.0549 C.3     1  UNL1        0.0000
     15 C           6.0641   -1.7881    8.4734 C.3     1  UNL1        0.0000
     16 C           8.7952   -0.2526    8.5850 C.3     1  UNL1        0.0000
     17 C           0.7351    3.6940   13.0188 C.ar    1  UNL1        0.0000
     18 C           1.7979    3.7319   13.9148 C.ar    1  UNL1        0.0000
     19 C           1.9450    4.8065   14.7746 C.ar    1  UNL1        0.0000
     20 C           1.0364    5.8516   14.7486 C.ar    1  UNL1        0.0000
     21 C          -0.0245    5.8206   13.8586 C.ar    1  UNL1        0.0000
     22 C          -0.1718    4.7480   12.9987 C.ar    1  UNL1        0.0000
     23 C          -0.7353    1.3797   12.9770 C.ar    1  UNL1        0.0000
     24 C          -1.7002    0.5810   12.3694 C.ar    1  UNL1        0.0000
     25 C          -2.5653   -0.1853   13.1272 C.ar    1  UNL1        0.0000
     26 C          -2.4747   -0.1664   14.5093 C.ar    1  UNL1        0.0000
     27 C          -1.5237    0.6302   15.1247 C.ar    1  UNL1        0.0000
     28 C          -0.6597    1.4008   14.3672 C.ar    1  UNL1        0.0000
     29 H           1.4943    0.3173   13.7229 H       1  UNL1        0.0000
     30 H           2.8342   -1.0390   15.0144 H       1  UNL1        0.0000
     31 H           4.6538   -2.6786   15.2112 H       1  UNL1        0.0000
     32 H           6.1922   -3.0469   13.3135 H       1  UNL1        0.0000
     33 H           5.9635   -1.7138   11.2674 H       1  UNL1        0.0000
     34 H           6.6538    0.4967   11.0481 H       1  UNL1        0.0000
     35 H           6.6533    1.9336   10.0132 H       1  UNL1        0.0000
     36 H           6.4136    0.4354    6.1205 H       1  UNL1        0.0000
     37 H           6.9420    1.8800    6.9537 H       1  UNL1        0.0000
     38 H           5.2990    1.2931    7.1779 H       1  UNL1        0.0000
     39 H           6.0148   -2.1549    7.4520 H       1  UNL1        0.0000
     40 H           6.6113   -2.5286    9.0502 H       1  UNL1        0.0000
     41 H           5.0481   -1.7487    8.8596 H       1  UNL1        0.0000
     42 H           9.1453   -0.7748    7.7010 H       1  UNL1        0.0000
     43 H           9.1278   -0.8169    9.4508 H       1  UNL1        0.0000
     44 H           9.2912    0.7124    8.6130 H       1  UNL1        0.0000
     45 H           2.5116    2.9171   13.9349 H       1  UNL1        0.0000
     46 H           2.7725    4.8277   15.4700 H       1  UNL1        0.0000
     47 H           1.1553    6.6884   15.4212 H       1  UNL1        0.0000
     48 H          -0.7353    6.6341   13.8356 H       1  UNL1        0.0000
     49 H          -1.0005    4.7170   12.3032 H       1  UNL1        0.0000
     50 H          -1.7784    0.5749   11.2899 H       1  UNL1        0.0000
     51 H          -3.3125   -0.7970   12.6418 H       1  UNL1        0.0000
     52 H          -3.1474   -0.7657   15.1054 H       1  UNL1        0.0000
     53 H          -1.4547    0.6524   16.2034 H       1  UNL1        0.0000
     54 H           0.0653    2.0331   14.8606 H       1  UNL1        0.0000
@<TRIPOS>BOND
     1    36    14    1
     2    37    14    1
     3    14    38    1
     4    14     2    1
     5    39    15    1
     6    42    16    1
     7    15     2    1
     8    15    41    1
     9    15    40    1
    10     2    16    1
    11     2    13    1
    12    16    44    1
    13    16    43    1
    14     3    13    1
    15     3    12    1
    16    35    13    1
    17    13    34    1
    18    12    11    1
    19    33    10    1
    20    50    24    1
    21     1     4    1
    22     1    23    1
    23     1    17    1
    24     4     5    2
    25    11    10   ar
    26    11     6   ar
    27    10     9   ar
    28    49    22    1
    29    24    23   ar
    30    24    25   ar
    31    51    25    1
    32     5     6    1
    33     5    29    1
    34    23    28   ar
    35    22    17   ar
    36    22    21   ar
    37    17    18   ar
    38     6     7   ar
    39    25    26   ar
    40     9    32    1
    41     9     8   ar
    42    48    21    1
    43    21    20   ar
    44    18    45    1
    45    18    19   ar
    46     7     8   ar
    47     7    30    1
    48     8    31    1
    49    28    54    1
    50    28    27   ar
    51    26    52    1
    52    26    27   ar
    53    20    19   ar
    54    20    47    1
    55    19    46    1
    56    27    53    1
