@<TRIPOS>MOLECULE
2,4,7
 45 44 0 0 0
SMALL
GASTEIGER

@<TRIPOS>ATOM
      1 SI          0.4723   -1.9207    5.4325 Si      1  UNL1        0.0000
      2 N           1.1597    2.1312    3.5827 N.2     1  UNL1        0.0000
      3 N           1.8753   -0.5502    2.2581 N.2     1  UNL1        0.0000
      4 C           1.0431    0.9103    3.9340 C.2     1  UNL1        0.0000
      5 C           1.7647   -0.3091    3.4990 C.2     1  UNL1        0.0000
      6 C           2.0954   -1.1529    4.6937 C.3     1  UNL1        0.0000
      7 C          -0.2474   -0.6168    6.5872 C.3     1  UNL1        0.0000
      8 C          -0.8087   -2.3435    4.0742 C.3     1  UNL1        0.0000
      9 C           1.0093   -3.5661    6.2574 C.3     1  UNL1        0.0000
     10 C           2.0629    2.7021    2.5790 C.3     1  UNL1        0.0000
     11 C           3.5077    2.2161    2.7197 C.3     1  UNL1        0.0000
     12 C           1.5169    2.3538    1.1904 C.3     1  UNL1        0.0000
     13 C           2.0144    4.2209    2.7923 C.3     1  UNL1        0.0000
     14 C           2.4769   -1.6860    1.5924 C.3     1  UNL1        0.0000
     15 C           2.2638   -1.4200    0.0927 C.3     1  UNL1        0.0000
     16 C           1.8256   -3.0305    1.9385 C.3     1  UNL1        0.0000
     17 C           3.9894   -1.7504    1.8606 C.3     1  UNL1        0.0000
     18 H           2.8233   -1.9225    4.4556 H       1  UNL1        0.0000
     19 H           2.5273   -0.5065    5.4639 H       1  UNL1        0.0000
     20 H          -1.2586   -0.9097    6.8894 H       1  UNL1        0.0000
     21 H           0.3468   -0.6085    7.5051 H       1  UNL1        0.0000
     22 H          -0.8332   -1.5798    3.3026 H       1  UNL1        0.0000
     23 H          -1.8043   -2.4198    4.4989 H       1  UNL1        0.0000
     24 H          -0.5954   -3.2946    3.5992 H       1  UNL1        0.0000
     25 H           1.7624   -3.3988    7.0208 H       1  UNL1        0.0000
     26 H           1.4191   -4.2716    5.5413 H       1  UNL1        0.0000
     27 H           0.1622   -4.0453    6.7357 H       1  UNL1        0.0000
     28 H           3.5769    1.1587    2.4911 H       1  UNL1        0.0000
     29 H           4.1481    2.7654    2.0332 H       1  UNL1        0.0000
     30 H           3.8683    2.3799    3.7338 H       1  UNL1        0.0000
     31 H           1.4943    1.2727    1.0818 H       1  UNL1        0.0000
     32 H           0.5068    2.7418    1.0779 H       1  UNL1        0.0000
     33 H           2.1481    2.7896    0.4193 H       1  UNL1        0.0000
     34 H           2.4273    4.4812    3.7643 H       1  UNL1        0.0000
     35 H           0.9859    4.5706    2.7491 H       1  UNL1        0.0000
     36 H           2.5887    4.7310    2.0228 H       1  UNL1        0.0000
     37 H           2.7504   -0.4918   -0.1948 H       1  UNL1        0.0000
     38 H           1.2016   -1.3289   -0.1188 H       1  UNL1        0.0000
     39 H           2.6741   -2.2314   -0.5033 H       1  UNL1        0.0000
     40 H           2.2889   -3.8184    1.3482 H       1  UNL1        0.0000
     41 H           0.7666   -2.9965    1.6976 H       1  UNL1        0.0000
     42 H           1.9360   -3.2749    2.9900 H       1  UNL1        0.0000
     43 H           4.2056   -1.9474    2.9071 H       1  UNL1        0.0000
     44 H           4.4329   -2.5432    1.2625 H       1  UNL1        0.0000
     45 H           4.4588   -0.8083    1.5854 H       1  UNL1        0.0000
@<TRIPOS>BOND
     1    39    15    1
     2    37    15    1
     3    38    15    1
     4    15    14    1
     5    33    12    1
     6    32    12    1
     7    31    12    1
     8    12    10    1
     9    44    17    1
    10    40    16    1
    11    45    17    1
    12    14    17    1
    13    14    16    1
    14    14     3    1
    15    41    16    1
    16    17    43    1
    17    16    42    1
    18    36    13    1
    19    29    11    1
    20     3     5    2
    21    28    11    1
    22    10    11    1
    23    10    13    1
    24    10     2    1
    25    11    30    1
    26    35    13    1
    27    13    34    1
    28    22     8    1
    29     5     4    1
    30     5     6    1
    31     2     4    2
    32    24     8    1
    33     8    23    1
    34     8     1    1
    35    18     6    1
    36     6     1    1
    37     6    19    1
    38     1     9    1
    39     1     7    1
    40    26     9    1
    41     9    27    1
    42     9    25    1
    43     7    20    1
    44     7    21    1
