@<TRIPOS>MOLECULE
4,6,7
 51 50 0 0 0
SMALL
GASTEIGER

@<TRIPOS>ATOM
      1 SI         -0.7191   -0.8160    3.2834 Si      1  UNL1        0.0000
      2 SI         -0.4026    4.0822    2.5130 Si      1  UNL1        0.0000
      3 N           0.9744   -0.7750    3.7412 N.3     1  UNL1        0.0000
      4 N           2.9110    0.3605    2.7147 N.3     1  UNL1        0.0000
      5 C           1.6719    0.3013    3.1764 C.3     1  UNL1        0.0000
      6 C           0.9570    1.4853    2.9585 C.2     1  UNL1        0.0000
      7 C           0.8305    2.7388    2.9178 C.2     1  UNL1        0.0000
      8 C           1.5625   -1.5283    4.8439 C.3     1  UNL1        0.0000
      9 H           2.5383   -1.0745    5.0538 H       1  UNL1        0.0000
     10 C           0.7212   -1.4050    6.1157 C.3     1  UNL1        0.0000
     11 H           0.5052   -0.3633    6.3373 H       1  UNL1        0.0000
     12 H           1.2613   -1.8357    6.9562 H       1  UNL1        0.0000
     13 H          -0.2207   -1.9323    6.0003 H       1  UNL1        0.0000
     14 C           1.7580   -3.0105    4.5114 C.3     1  UNL1        0.0000
     15 H           0.8023   -3.5229    4.5004 H       1  UNL1        0.0000
     16 H           2.3901   -3.4745    5.2658 H       1  UNL1        0.0000
     17 H           2.2244   -3.1402    3.5395 H       1  UNL1        0.0000
     18 C           3.7037   -0.8358    2.4929 C.3     1  UNL1        0.0000
     19 H           3.6427   -1.4970    3.3683 H       1  UNL1        0.0000
     20 C           3.1509   -1.6054    1.2847 C.3     1  UNL1        0.0000
     21 H           2.1131   -1.8829    1.4595 H       1  UNL1        0.0000
     22 H           3.7359   -2.5067    1.1127 H       1  UNL1        0.0000
     23 H           3.1925   -0.9850    0.3919 H       1  UNL1        0.0000
     24 C           5.1843   -0.5084    2.2955 C.3     1  UNL1        0.0000
     25 H           5.3660   -0.0861    1.3121 H       1  UNL1        0.0000
     26 H           5.7722   -1.4196    2.3906 H       1  UNL1        0.0000
     27 H           5.5130    0.2024    3.0522 H       1  UNL1        0.0000
     28 C          -1.4031   -2.6000    3.3121 C.3     1  UNL1        0.0000
     29 H          -0.8270   -3.2773    2.6900 H       1  UNL1        0.0000
     30 H          -2.4156   -2.5851    2.9217 H       1  UNL1        0.0000
     31 H          -1.4575   -3.0230    4.3093 H       1  UNL1        0.0000
     32 C          -0.8678   -0.2318    1.4714 C.3     1  UNL1        0.0000
     33 H          -1.1155    0.8230    1.4172 H       1  UNL1        0.0000
     34 H          -1.6460   -0.7818    0.9509 H       1  UNL1        0.0000
     35 H           0.0602   -0.3712    0.9246 H       1  UNL1        0.0000
     36 C          -1.8126    0.2449    4.4407 C.3     1  UNL1        0.0000
     37 H          -2.0424   -0.2691    5.3694 H       1  UNL1        0.0000
     38 H          -2.7589    0.4859    3.9672 H       1  UNL1        0.0000
     39 H          -1.3209    1.1807    4.6895 H       1  UNL1        0.0000
     40 C          -2.1150    3.6568    3.2517 C.3     1  UNL1        0.0000
     41 H          -2.5359    2.7633    2.8035 H       1  UNL1        0.0000
     42 H          -2.8125    4.4717    3.0814 H       1  UNL1        0.0000
     43 H          -2.0602    3.4946    4.3233 H       1  UNL1        0.0000
     44 C           0.1857    5.7248    3.3132 C.3     1  UNL1        0.0000
     45 H           1.2220    5.6710    3.6351 H       1  UNL1        0.0000
     46 H          -0.4125    5.9723    4.1850 H       1  UNL1        0.0000
     47 H           0.0994    6.5560    2.6195 H       1  UNL1        0.0000
     48 C          -0.6615    4.3501    0.6331 C.3     1  UNL1        0.0000
     49 H           0.2160    4.7778    0.1583 H       1  UNL1        0.0000
     50 H          -1.4923    5.0274    0.4554 H       1  UNL1        0.0000
     51 H          -0.8888    3.4162    0.1266 H       1  UNL1        0.0000
@<TRIPOS>BOND
     1    51    48    1
     2    49    48    1
     3    23    20    1
     4    50    48    1
     5    48     2    1
     6    35    32    1
     7    34    32    1
     8    22    20    1
     9    20    21    1
    10    20    18    1
    11    25    24    1
    12    33    32    1
    13    32     1    1
    14    24    26    1
    15    24    18    1
    16    24    27    1
    17    18     4    1
    18    18    19    1
    19     2     7    1
    20     2    40    1
    21     2    44    1
    22    47    44    1
    23    29    28    1
    24     4     5    1
    25    41    40    1
    26     7     6    2
    27    30    28    1
    28     6     5    1
    29    42    40    1
    30     5     3    1
    31    40    43    1
    32     1    28    1
    33     1     3    1
    34     1    36    1
    35    28    31    1
    36    44    45    1
    37    44    46    1
    38    17    14    1
    39     3     8    1
    40    38    36    1
    41    36    39    1
    42    36    37    1
    43    15    14    1
    44    14     8    1
    45    14    16    1
    46     8     9    1
    47     8    10    1
    48    13    10    1
    49    10    11    1
    50    10    12    1
