@<TRIPOS>MOLECULE
1,2,5
 22 22 0 0 0
SMALL
GASTEIGER

@<TRIPOS>ATOM
      1 N           7.9402    2.6602    7.7996 N.pl3   1  UNL1       -0.3358
      2 C           6.1399    2.6937    5.6011 C.3     1  UNL1       -0.0219
      3 H           5.5499    3.1109    6.4230 H       1  UNL1        0.0317
      4 H           5.5289    2.5807    4.7053 H       1  UNL1        0.0317
      5 C           6.8871    1.4815    5.9221 C.ar    1  UNL1       -0.0261
      6 C           7.7660    1.4270    7.0395 C.ar    1  UNL1        0.0324
      7 C           8.4622    0.2651    7.3240 C.ar    1  UNL1       -0.0404
      8 H           9.1197    0.2109    8.1776 H       1  UNL1        0.0636
      9 C           8.3467   -0.8509    6.5055 C.ar    1  UNL1       -0.0600
     10 H           8.9021   -1.7443    6.7429 H       1  UNL1        0.0618
     11 C           7.5254   -0.8053    5.3916 C.ar    1  UNL1       -0.0614
     12 H           7.4378   -1.6642    4.7468 H       1  UNL1        0.0618
     13 C           6.8067    0.3384    5.1086 C.ar    1  UNL1       -0.0568
     14 H           6.1531    0.3573    4.2514 H       1  UNL1        0.0621
     15 C           9.2134    2.7177    8.5317 C.3     1  UNL1        0.0004
     16 H           9.2220    2.0321    9.3883 H       1  UNL1        0.0428
     17 H           9.3477    3.7268    8.9171 H       1  UNL1        0.0428
     18 H          10.0551    2.4702    7.8880 H       1  UNL1        0.0428
     19 C           6.8702    2.7653    8.8043 C.3     1  UNL1        0.0004
     20 H           5.8902    2.6553    8.3475 H       1  UNL1        0.0428
     21 H           6.9243    3.7351    9.2979 H       1  UNL1        0.0428
     22 H           6.9760    1.9807    9.5641 H       1  UNL1        0.0428
@<TRIPOS>BOND
     1    14    13    1
     2     4     2    1
     3    12    11    1
     4    13    11   ar
     5    13     5   ar
     6    11     9   ar
     7     2     5    1
     8     2     3    1
     9     5     6   ar
    10     9    10    1
    11     9     7   ar
    12     6     7   ar
    13     6     1    1
    14     7     8    1
    15     1    15    1
    16     1    19    1
    17    18    15    1
    18    20    19    1
    19    15    17    1
    20    15    16    1
    21    19    21    1
    22    19    22    1
