@<TRIPOS>MOLECULE
2,4,7
 45 44 0 0 0
SMALL
GASTEIGER

@<TRIPOS>ATOM
      1 SI          0.4600   -1.9395    5.3819 Si      1  UNL1        0.0000
      2 N           1.0583    1.9769    3.7103 N.2     1  UNL1        0.0000
      3 N           1.8736   -0.6466    2.1896 N.2     1  UNL1        0.0000
      4 C           0.9974    0.7167    3.9183 C.2     1  UNL1        0.0000
      5 C           1.7731   -0.4276    3.4387 C.2     1  UNL1        0.0000
      6 C           2.1275   -1.2621    4.6312 C.3     1  UNL1        0.0000
      7 C          -0.1949   -0.6115    6.5307 C.3     1  UNL1        0.0000
      8 C          -0.8134   -2.3044    3.9953 C.3     1  UNL1        0.0000
      9 C           0.9330   -3.6410    6.1487 C.3     1  UNL1        0.0000
     10 C           1.9380    2.6585    2.7390 C.3     1  UNL1        0.0000
     11 C           3.4020    2.2311    2.8770 C.3     1  UNL1        0.0000
     12 C           1.4202    2.3184    1.3364 C.3     1  UNL1        0.0000
     13 C           1.8048    4.1651    2.9922 C.3     1  UNL1        0.0000
     14 C           2.5068   -1.7601    1.5160 C.3     1  UNL1        0.0000
     15 C           2.3084   -1.4746    0.0180 C.3     1  UNL1        0.0000
     16 C           1.8661   -3.1154    1.8392 C.3     1  UNL1        0.0000
     17 C           4.0164   -1.8054    1.8034 C.3     1  UNL1        0.0000
     18 H           2.8319   -2.0541    4.3974 H       1  UNL1        0.0000
     19 H           2.5801   -0.6105    5.3873 H       1  UNL1        0.0000
     20 H          -1.2075   -0.8716    6.8731 H       1  UNL1        0.0000
     21 H           0.4323   -0.6044    7.4318 H       1  UNL1        0.0000
     22 H          -0.8160   -1.5136    3.2506 H       1  UNL1        0.0000
     23 H          -1.8153   -2.3829    4.4052 H       1  UNL1        0.0000
     24 H          -0.6049   -3.2417    3.4911 H       1  UNL1        0.0000
     25 H           1.6850   -3.5295    6.9237 H       1  UNL1        0.0000
     26 H           1.3223   -4.3378    5.4123 H       1  UNL1        0.0000
     27 H           0.0643   -4.1039    6.6045 H       1  UNL1        0.0000
     28 H           3.5154    1.1866    2.6055 H       1  UNL1        0.0000
     29 H           4.0253    2.8327    2.2191 H       1  UNL1        0.0000
     30 H           3.7489    2.3645    3.9009 H       1  UNL1        0.0000
     31 H           1.4568    1.2394    1.1983 H       1  UNL1        0.0000
     32 H           0.3903    2.6532    1.2266 H       1  UNL1        0.0000
     33 H           2.0309    2.8067    0.5802 H       1  UNL1        0.0000
     34 H           2.2662    4.4423    3.9374 H       1  UNL1        0.0000
     35 H           0.7530    4.4448    3.0229 H       1  UNL1        0.0000
     36 H           2.2908    4.7243    2.1957 H       1  UNL1        0.0000
     37 H           2.7828   -0.5335   -0.2481 H       1  UNL1        0.0000
     38 H           1.2474   -1.3965   -0.2046 H       1  UNL1        0.0000
     39 H           2.7391   -2.2695   -0.5859 H       1  UNL1        0.0000
     40 H           2.3468   -3.8946    1.2510 H       1  UNL1        0.0000
     41 H           0.8099   -3.0899    1.5838 H       1  UNL1        0.0000
     42 H           1.9622   -3.3645    2.8911 H       1  UNL1        0.0000
     43 H           4.2210   -2.0389    2.8446 H       1  UNL1        0.0000
     44 H           4.4864   -2.5642    1.1818 H       1  UNL1        0.0000
     45 H           4.4684   -0.8425    1.5732 H       1  UNL1        0.0000
@<TRIPOS>BOND
     1    39    15    1
     2    37    15    1
     3    38    15    1
     4    15    14    1
     5    33    12    1
     6    44    17    1
     7    31    12    1
     8    32    12    1
     9    40    16    1
    10    12    10    1
    11    14    17    1
    12    14    16    1
    13    14     3    1
    14    45    17    1
    15    41    16    1
    16    17    43    1
    17    16    42    1
    18     3     5    2
    19    36    13    1
    20    29    11    1
    21    28    11    1
    22    10    11    1
    23    10    13    1
    24    10     2    1
    25    11    30    1
    26    13    35    1
    27    13    34    1
    28    22     8    1
    29     5     4    1
    30     5     6    1
    31    24     8    1
    32     2     4    2
    33     8    23    1
    34     8     1    1
    35    18     6    1
    36     6     1    1
    37     6    19    1
    38     1     9    1
    39     1     7    1
    40    26     9    1
    41     9    27    1
    42     9    25    1
    43     7    20    1
    44     7    21    1
