@<TRIPOS>MOLECULE
2,3,5
 30 29 0 0 0
SMALL
GASTEIGER

@<TRIPOS>ATOM
      1 SI          3.7904    6.1241   -0.5246 Si      1  UNL1        0.0000
      2 N           1.3189    5.0370    2.2281 N.2     1  UNL1        0.0000
      3 C           2.3313    4.9695    1.4663 C.2     1  UNL1        0.0000
      4 C           3.5931    5.7807    1.3775 C.3     1  UNL1        0.0000
      5 C           3.4607    4.4466   -1.3102 C.3     1  UNL1        0.0000
      6 C           2.4418    7.4159   -0.9671 C.3     1  UNL1        0.0000
      7 C           5.4936    6.9683   -0.8044 C.3     1  UNL1        0.0000
      8 C           1.0780    5.9491    3.3556 C.3     1  UNL1        0.0000
      9 C           0.9149    7.3926    2.8637 C.3     1  UNL1        0.0000
     10 C          -0.2476    5.4804    3.9726 C.3     1  UNL1        0.0000
     11 C           2.1811    5.8527    4.4170 C.3     1  UNL1        0.0000
     12 H           3.6192    6.6790    1.9973 H       1  UNL1        0.0000
     13 H           4.4221    5.1394    1.6913 H       1  UNL1        0.0000
     14 H           4.3818    3.8457   -1.2870 H       1  UNL1        0.0000
     15 H           3.1780    4.5441   -2.3682 H       1  UNL1        0.0000
     16 H           2.6779    8.3917   -0.5537 H       1  UNL1        0.0000
     17 H           1.4769    7.1111   -0.5717 H       1  UNL1        0.0000
     18 H           2.3433    7.5382   -2.0407 H       1  UNL1        0.0000
     19 H           5.6093    7.2556   -1.8439 H       1  UNL1        0.0000
     20 H           6.3118    6.2992   -0.5583 H       1  UNL1        0.0000
     21 H           5.6096    7.8642   -0.2027 H       1  UNL1        0.0000
     22 H           0.6543    8.0430    3.6965 H       1  UNL1        0.0000
     23 H           0.1192    7.4418    2.1228 H       1  UNL1        0.0000
     24 H           1.8280    7.7623    2.4062 H       1  UNL1        0.0000
     25 H          -1.0343    5.5123    3.2227 H       1  UNL1        0.0000
     26 H          -0.5317    6.1141    4.8097 H       1  UNL1        0.0000
     27 H          -0.1502    4.4554    4.3229 H       1  UNL1        0.0000
     28 H           1.8948    6.4165    5.3026 H       1  UNL1        0.0000
     29 H           3.1250    6.2441    4.0499 H       1  UNL1        0.0000
     30 H           2.3288    4.8121    4.7004 H       1  UNL1        0.0000
@<TRIPOS>BOND
     1    15     5    1
     2    18     6    1
     3    19     7    1
     4     5    14    1
     5     5     1    1
     6     6    17    1
     7     6    16    1
     8     6     1    1
     9     7    20    1
    10     7     1    1
    11     7    21    1
    12     1     4    1
    13     4     3    1
    14     4    13    1
    15     4    12    1
    16     3     2    2
    17    23     9    1
    18     2     8    1
    19    24     9    1
    20     9     8    1
    21     9    22    1
    22    25    10    1
    23     8    10    1
    24     8    11    1
    25    10    27    1
    26    10    26    1
    27    29    11    1
    28    11    30    1
    29    11    28    1
