@<TRIPOS>MOLECULE
1,6
 34 35 0 0 0
SMALL
GASTEIGER

@<TRIPOS>ATOM
      1 N           3.8445    0.8751    4.6272 N.pl3   1  UNL1       -0.2451
      2 C           2.1587    2.7102    6.0590 C.3     1  UNL1        0.0002
      3 C           2.6160    3.9678    5.5712 C.3     1  UNL1        0.0056
      4 C           1.5002    4.7990    5.3914 C.2     1  UNL1       -0.0658
      5 C           0.3427    4.0930    5.7802 C.2     1  UNL1       -0.0658
      6 C           0.7254    2.7999    6.1828 C.3     1  UNL1        0.0056
      7 C           4.0448    4.3889    5.3868 C.3     1  UNL1       -0.0545
      8 H           4.7242    3.5446    5.4967 H       1  UNL1        0.0239
      9 H           4.3177    5.1419    6.1305 H       1  UNL1        0.0239
     10 H           4.2036    4.8307    4.4020 H       1  UNL1        0.0239
     11 C           1.5926    6.2180    4.9167 C.3     1  UNL1       -0.0430
     12 H           2.2700    6.7872    5.5552 H       1  UNL1        0.0275
     13 H           0.6232    6.7108    4.9392 H       1  UNL1        0.0275
     14 H           1.9832    6.2696    3.8973 H       1  UNL1        0.0275
     15 C          -1.0510    4.6374    5.8932 C.3     1  UNL1       -0.0430
     16 H          -1.7883    3.9158    5.5413 H       1  UNL1        0.0275
     17 H          -1.1691    5.5546    5.3202 H       1  UNL1        0.0275
     18 H          -1.2863    4.8662    6.9356 H       1  UNL1        0.0275
     19 C          -0.1565    1.8133    6.9024 C.3     1  UNL1       -0.0545
     20 H          -0.1352    2.0001    7.9804 H       1  UNL1        0.0239
     21 H           0.1574    0.7827    6.7305 H       1  UNL1        0.0239
     22 H          -1.1919    1.9097    6.5771 H       1  UNL1        0.0239
     23 C           3.0276    1.6986    6.7704 C.3     1  UNL1       -0.0160
     24 H           2.3924    0.8975    7.1639 H       1  UNL1        0.0296
     25 H           3.5114    2.1723    7.6331 H       1  UNL1        0.0296
     26 C           4.0955    1.0632    5.9249 C.3     1  UNL1        0.0983
     27 C           5.3067    0.6669    6.4949 C.2     1  UNL1       -0.0567
     28 H           5.4803    0.8291    7.5481 H       1  UNL1        0.0595
     29 C           6.2711    0.0746    5.7042 C.2     1  UNL1       -0.0623
     30 H           7.2142   -0.2386    6.1274 H       1  UNL1        0.0616
     31 C           6.0061   -0.1035    4.3529 C.2     1  UNL1       -0.0466
     32 H           6.7331   -0.5526    3.6953 H       1  UNL1        0.0630
     33 C           4.7815    0.3140    3.8667 C.2     1  UNL1        0.0125
     34 H           4.5323    0.2056    2.8181 H       1  UNL1        0.0797
@<TRIPOS>BOND
     1    34    33    1
     2    32    31    1
     3    33    31    2
     4    33     1    1
     5    14    11    1
     6    31    29    1
     7    10     7    1
     8     1    26    1
     9    11    13    1
    10    11     4    1
    11    11    12    1
    12    17    15    1
    13     7     8    1
    14     7     3    1
    15     7     9    1
    16     4     3    1
    17     4     5    2
    18    16    15    1
    19     3     2    1
    20    29    30    1
    21    29    27    2
    22     5    15    1
    23     5     6    1
    24    15    18    1
    25    26    27    1
    26    26    23    1
    27     2     6    1
    28     2    23    1
    29     6    19    1
    30    27    28    1
    31    22    19    1
    32    21    19    1
    33    23    24    1
    34    23    25    1
    35    19    20    1
