@<TRIPOS>MOLECULE
2,3,4
 42 43 0 0 0
SMALL
GASTEIGER

@<TRIPOS>ATOM
      1 SI          2.4283    1.4693    4.5759 Si      1  UNL1        0.0000
      2 N           4.0536    1.9166    4.1353 N.pl3   1  UNL1        0.0000
      3 C           1.7083    1.5839    2.8256 C.2     1  UNL1        0.0000
      4 C           2.2915    0.7786    1.7385 C.3     1  UNL1        0.0000
      5 C           1.5858    1.1312    0.5403 C.2     1  UNL1        0.0000
      6 C           0.6676    2.1276    0.8492 C.2     1  UNL1        0.0000
      7 C           0.7458    2.4024    2.2408 C.2     1  UNL1        0.0000
      8 C           2.8230   -0.6333    1.9410 C.3     1  UNL1        0.0000
      9 H           1.9782   -1.3221    2.0441 H       1  UNL1        0.0000
     10 H           3.4291   -0.7157    2.8439 H       1  UNL1        0.0000
     11 H           3.4093   -0.9653    1.0810 H       1  UNL1        0.0000
     12 C           1.7699    0.4277   -0.7721 C.3     1  UNL1        0.0000
     13 H           2.8294    0.2890   -0.9973 H       1  UNL1        0.0000
     14 H           1.3155    0.9891   -1.5861 H       1  UNL1        0.0000
     15 H           1.2986   -0.5576   -0.7461 H       1  UNL1        0.0000
     16 C          -0.2877    2.8082   -0.0807 C.3     1  UNL1        0.0000
     17 H          -0.0239    2.6300   -1.1210 H       1  UNL1        0.0000
     18 H          -0.2986    3.8847    0.0927 H       1  UNL1        0.0000
     19 H          -1.3029    2.4385    0.0761 H       1  UNL1        0.0000
     20 C          -0.1203    3.4215    2.9120 C.3     1  UNL1        0.0000
     21 H           0.1077    4.4303    2.5579 H       1  UNL1        0.0000
     22 H           0.0069    3.3921    3.9885 H       1  UNL1        0.0000
     23 H          -1.1691    3.2277    2.6847 H       1  UNL1        0.0000
     24 C           1.6071    2.6015    5.8934 C.3     1  UNL1        0.0000
     25 H           2.1163    2.4901    6.8450 H       1  UNL1        0.0000
     26 H           0.5717    2.3175    6.0488 H       1  UNL1        0.0000
     27 H           1.6330    3.6556    5.6392 H       1  UNL1        0.0000
     28 C           2.2590   -0.2950    5.3293 C.3     1  UNL1        0.0000
     29 H           3.1969   -0.8404    5.2788 H       1  UNL1        0.0000
     30 H           1.5069   -0.8806    4.8113 H       1  UNL1        0.0000
     31 H           1.9688   -0.2458    6.3742 H       1  UNL1        0.0000
     32 C           5.1246    2.0615    4.9619 C.ar    1  UNL1        0.0000
     33 C           5.1050    1.7815    6.3411 C.ar    1  UNL1        0.0000
     34 H           4.1935    1.4042    6.7765 H       1  UNL1        0.0000
     35 C           6.2209    1.9679    7.1270 C.ar    1  UNL1        0.0000
     36 H           6.1682    1.7423    8.1834 H       1  UNL1        0.0000
     37 C           7.4092    2.4363    6.5855 C.ar    1  UNL1        0.0000
     38 H           8.2791    2.5799    7.2081 H       1  UNL1        0.0000
     39 C           7.4621    2.7090    5.2279 C.ar    1  UNL1        0.0000
     40 H           8.3829    3.0676    4.7854 H       1  UNL1        0.0000
     41 C           6.3484    2.5276    4.4341 C.ar    1  UNL1        0.0000
     42 H           6.3989    2.7449    3.3599 H       1  UNL1        0.0000
@<TRIPOS>BOND
     1    14    12    1
     2    17    16    1
     3    13    12    1
     4    12    15    1
     5    12     5    1
     6    16    19    1
     7    16    18    1
     8    16     6    1
     9     5     6    2
    10     5     4    1
    11     6     7    1
    12    11     8    1
    13     4     8    1
    14     4     3    1
    15     8     9    1
    16     8    10    1
    17     7     3    2
    18     7    20    1
    19    21    20    1
    20    23    20    1
    21     3     1    1
    22    20    22    1
    23    42    41    1
    24     2     1    1
    25     2    32    1
    26    41    32   ar
    27    41    39   ar
    28     1    28    1
    29     1    24    1
    30    40    39    1
    31    30    28    1
    32    32    33   ar
    33    39    37   ar
    34    29    28    1
    35    28    31    1
    36    27    24    1
    37    24    26    1
    38    24    25    1
    39    33    34    1
    40    33    35   ar
    41    37    35   ar
    42    37    38    1
    43    35    36    1
