@<TRIPOS>MOLECULE
2,3,4
 44 44 0 0 0
SMALL
GASTEIGER

@<TRIPOS>ATOM
      1 SI         -7.0848   -0.2109    8.7527 Si      1  UNL1        0.0000
      2 N          -7.4698    1.3445    8.1140 N.3     1  UNL1        0.0000
      3 C          -5.7739   -0.6713    7.4445 C.2     1  UNL1        0.0000
      4 C          -6.1542   -0.8627    6.0324 C.3     1  UNL1        0.0000
      5 C          -4.9687   -1.2233    5.3262 C.2     1  UNL1        0.0000
      6 C          -3.8984   -1.1920    6.2201 C.2     1  UNL1        0.0000
      7 C          -4.3887   -0.8487    7.5033 C.2     1  UNL1        0.0000
      8 C          -7.5286   -1.3143    5.5677 C.3     1  UNL1        0.0000
      9 H          -8.3345   -0.7748    6.0675 H       1  UNL1        0.0000
     10 H          -7.6527   -2.3792    5.7859 H       1  UNL1        0.0000
     11 H          -7.6406   -1.1903    4.4890 H       1  UNL1        0.0000
     12 C          -4.9490   -1.6791    3.8953 C.3     1  UNL1        0.0000
     13 H          -5.3369   -2.6977    3.8186 H       1  UNL1        0.0000
     14 H          -3.9384   -1.6795    3.4917 H       1  UNL1        0.0000
     15 H          -5.5697   -1.0416    3.2631 H       1  UNL1        0.0000
     16 C          -2.4556   -1.4578    5.9255 C.3     1  UNL1        0.0000
     17 H          -2.3167   -1.8060    4.9051 H       1  UNL1        0.0000
     18 H          -2.0624   -2.2184    6.6005 H       1  UNL1        0.0000
     19 H          -1.8569   -0.5535    6.0616 H       1  UNL1        0.0000
     20 C          -3.5180   -0.7659    8.7190 C.3     1  UNL1        0.0000
     21 H          -4.0576   -0.3299    9.5531 H       1  UNL1        0.0000
     22 H          -2.6209   -0.1737    8.5240 H       1  UNL1        0.0000
     23 H          -3.1847   -1.7630    9.0146 H       1  UNL1        0.0000
     24 C          -6.4633   -0.2009   10.5749 C.3     1  UNL1        0.0000
     25 H          -5.9770   -1.1382   10.8216 H       1  UNL1        0.0000
     26 H          -7.3060   -0.0888   11.2490 H       1  UNL1        0.0000
     27 H          -5.7705    0.6056   10.7910 H       1  UNL1        0.0000
     28 C          -8.4308   -1.5931    8.8304 C.3     1  UNL1        0.0000
     29 H          -8.8590   -1.6558    9.8262 H       1  UNL1        0.0000
     30 H          -8.0088   -2.5657    8.5985 H       1  UNL1        0.0000
     31 H          -9.2483   -1.4224    8.1375 H       1  UNL1        0.0000
     32 C          -8.6882    2.1009    8.3492 C.3     1  UNL1        0.0000
     33 C          -9.2668    1.8538    9.7481 C.3     1  UNL1        0.0000
     34 H         -10.1315    2.4913    9.9193 H       1  UNL1        0.0000
     35 H          -8.5152    2.0680   10.5030 H       1  UNL1        0.0000
     36 H          -9.5687    0.8167    9.8484 H       1  UNL1        0.0000
     37 C          -8.3846    3.6068    8.2084 C.3     1  UNL1        0.0000
     38 H          -9.3027    4.1885    8.2642 H       1  UNL1        0.0000
     39 H          -7.9053    3.8036    7.2430 H       1  UNL1        0.0000
     40 H          -7.7210    3.9357    9.0062 H       1  UNL1        0.0000
     41 C          -9.7529    1.7270    7.2964 C.3     1  UNL1        0.0000
     42 H          -9.3493    1.8782    6.2888 H       1  UNL1        0.0000
     43 H         -10.6460    2.3379    7.4117 H       1  UNL1        0.0000
     44 H         -10.0309    0.6820    7.4102 H       1  UNL1        0.0000
@<TRIPOS>BOND
     1    15    12    1
     2    14    12    1
     3    13    12    1
     4    12     5    1
     5    11     8    1
     6    17    16    1
     7     5     4    1
     8     5     6    2
     9     8    10    1
    10     8     4    1
    11     8     9    1
    12    16    19    1
    13    16     6    1
    14    16    18    1
    15     4     3    1
    16     6     7    1
    17    42    41    1
    18    39    37    1
    19    41    44    1
    20    41    43    1
    21    41    32    1
    22     3     7    2
    23     3     1    1
    24     7    20    1
    25     2    32    1
    26     2     1    1
    27    31    28    1
    28    37    38    1
    29    37    32    1
    30    37    40    1
    31    32    33    1
    32    22    20    1
    33    30    28    1
    34    20    23    1
    35    20    21    1
    36     1    28    1
    37     1    24    1
    38    28    29    1
    39    33    36    1
    40    33    34    1
    41    33    35    1
    42    24    27    1
    43    24    25    1
    44    24    26    1
