@<TRIPOS>MOLECULE
2,3,4
 44 44 0 0 0
SMALL
GASTEIGER

@<TRIPOS>ATOM
      1 SI         -7.0651   -0.0704    8.5959 Si      1  UNL1        0.0000
      2 N          -7.3474    1.5243    8.0091 N.3     1  UNL1        0.0000
      3 C          -5.7373   -0.5712    7.3254 C.2     1  UNL1        0.0000
      4 C          -6.0672   -0.7011    5.9014 C.3     1  UNL1        0.0000
      5 C          -4.8639   -1.0382    5.2202 C.2     1  UNL1        0.0000
      6 C          -3.8243   -1.0642    6.1513 C.2     1  UNL1        0.0000
      7 C          -4.3576   -0.7742    7.4306 C.2     1  UNL1        0.0000
      8 C          -7.4341   -1.0697    5.3538 C.3     1  UNL1        0.0000
      9 H          -8.2393   -0.5306    5.8544 H       1  UNL1        0.0000
     10 H          -7.6064   -2.1401    5.5005 H       1  UNL1        0.0000
     11 H          -7.4932   -0.8723    4.2813 H       1  UNL1        0.0000
     12 C          -4.7743   -1.4245    3.7720 C.3     1  UNL1        0.0000
     13 H          -5.1394   -2.4441    3.6277 H       1  UNL1        0.0000
     14 H          -3.7435   -1.3918    3.4242 H       1  UNL1        0.0000
     15 H          -5.3780   -0.7657    3.1439 H       1  UNL1        0.0000
     16 C          -2.3901   -1.3698    5.8471 C.3     1  UNL1        0.0000
     17 H          -2.0300   -0.7695    5.0097 H       1  UNL1        0.0000
     18 H          -2.2653   -2.4208    5.5793 H       1  UNL1        0.0000
     19 H          -1.7586   -1.1672    6.7089 H       1  UNL1        0.0000
     20 C          -3.5486   -0.7758    8.6919 C.3     1  UNL1        0.0000
     21 H          -4.1494   -0.4431    9.5306 H       1  UNL1        0.0000
     22 H          -2.6694   -0.1307    8.6109 H       1  UNL1        0.0000
     23 H          -3.1890   -1.7836    8.9099 H       1  UNL1        0.0000
     24 C          -6.5249   -0.1578   10.4435 C.3     1  UNL1        0.0000
     25 H          -6.1036   -1.1292   10.6786 H       1  UNL1        0.0000
     26 H          -7.3891   -0.0202   11.0851 H       1  UNL1        0.0000
     27 H          -5.7989    0.6010   10.7177 H       1  UNL1        0.0000
     28 C          -8.4892   -1.3753    8.5877 C.3     1  UNL1        0.0000
     29 H          -8.9979   -1.3934    9.5475 H       1  UNL1        0.0000
     30 H          -8.1031   -2.3737    8.4071 H       1  UNL1        0.0000
     31 H          -9.2385   -1.1761    7.8282 H       1  UNL1        0.0000
     32 C          -8.5191    2.3415    8.2677 C.3     1  UNL1        0.0000
     33 C          -9.0947    2.1138    9.6723 C.3     1  UNL1        0.0000
     34 H          -9.9189    2.7985    9.8610 H       1  UNL1        0.0000
     35 H          -8.3235    2.2751   10.4204 H       1  UNL1        0.0000
     36 H          -9.4557    1.0950    9.7645 H       1  UNL1        0.0000
     37 C          -8.1376    3.8322    8.1429 C.3     1  UNL1        0.0000
     38 H          -9.0240    4.4599    8.2149 H       1  UNL1        0.0000
     39 H          -7.6532    4.0206    7.1776 H       1  UNL1        0.0000
     40 H          -7.4516    4.1140    8.9397 H       1  UNL1        0.0000
     41 C          -9.6219    2.0378    7.2308 C.3     1  UNL1        0.0000
     42 H          -9.2335    2.1835    6.2175 H       1  UNL1        0.0000
     43 H         -10.4820    2.6884    7.3765 H       1  UNL1        0.0000
     44 H          -9.9454    1.0054    7.3357 H       1  UNL1        0.0000
@<TRIPOS>BOND
     1    15    12    1
     2    14    12    1
     3    13    12    1
     4    12     5    1
     5    11     8    1
     6    17    16    1
     7     5     4    1
     8     5     6    2
     9     8    10    1
    10     8     9    1
    11     8     4    1
    12    18    16    1
    13    16     6    1
    14    16    19    1
    15     4     3    1
    16     6     7    1
    17    42    41    1
    18    39    37    1
    19    41    44    1
    20    41    43    1
    21    41    32    1
    22     3     7    2
    23     3     1    1
    24     7    20    1
    25    31    28    1
    26     2    32    1
    27     2     1    1
    28    37    38    1
    29    37    32    1
    30    37    40    1
    31    32    33    1
    32    30    28    1
    33    28     1    1
    34    28    29    1
    35     1    24    1
    36    22    20    1
    37    20    23    1
    38    20    21    1
    39    33    36    1
    40    33    34    1
    41    33    35    1
    42    24    25    1
    43    24    27    1
    44    24    26    1
