@<TRIPOS>MOLECULE
1,4,10
 31 32 0 0 0
SMALL
GASTEIGER

@<TRIPOS>ATOM
      1 N           3.8397    9.8697    4.2291 N.pl3   1  UNL1       -0.2403
      2 C           3.6173    8.6315    3.7081 C.3     1  UNL1        0.1239
      3 C           6.3398    6.2151    3.1685 C.2     1  UNL1       -0.0476
      4 C           4.7270    7.7230    3.7360 C.2     1  UNL1       -0.0240
      5 C           6.6382    6.6696    4.4634 C.2     1  UNL1       -0.0583
      6 C           7.1077    5.2244    2.3490 C.3     1  UNL1       -0.0395
      7 H           6.4824    4.3638    2.1094 H       1  UNL1        0.0278
      8 H           7.9888    4.8649    2.8759 H       1  UNL1        0.0278
      9 H           7.4324    5.6663    1.4042 H       1  UNL1        0.0278
     10 C           5.6889    7.6549    4.8332 C.3     1  UNL1        0.0259
     11 C           5.2830    7.8670    6.2829 C.3     1  UNL1       -0.0509
     12 H           4.9326    6.9152    6.6958 H       1  UNL1        0.0242
     13 H           4.4620    8.5789    6.3655 H       1  UNL1        0.0242
     14 H           6.1088    8.2076    6.9073 H       1  UNL1        0.0242
     15 C           5.1655    6.8405    2.7298 C.2     1  UNL1       -0.0450
     16 C           2.3551    8.2929    3.1869 C.2     1  UNL1       -0.0523
     17 H           2.1976    7.2976    2.8035 H       1  UNL1        0.0598
     18 C           4.5736    6.6746    1.3662 C.3     1  UNL1       -0.0394
     19 H           5.3587    6.6361    0.6112 H       1  UNL1        0.0278
     20 H           3.9059    7.4995    1.1252 H       1  UNL1        0.0278
     21 H           4.0071    5.7433    1.2989 H       1  UNL1        0.0278
     22 C           7.6827    6.1373    5.3976 C.3     1  UNL1       -0.0424
     23 H           8.3295    6.9351    5.7667 H       1  UNL1        0.0275
     24 H           8.3033    5.3886    4.9108 H       1  UNL1        0.0275
     25 H           7.2099    5.6672    6.2622 H       1  UNL1        0.0275
     26 C           1.5748   10.4755    3.7599 C.2     1  UNL1       -0.0466
     27 H           0.7986   11.2227    3.8003 H       1  UNL1        0.0630
     28 C           2.8345   10.7409    4.2566 C.2     1  UNL1        0.0129
     29 H           3.0620   11.7051    4.6999 H       1  UNL1        0.0798
     30 C           1.3384    9.2168    3.2069 C.2     1  UNL1       -0.0620
     31 H           0.3624    8.9697    2.8140 H       1  UNL1        0.0616
@<TRIPOS>BOND
     1    19    18    1
     2    20    18    1
     3    21    18    1
     4    18    15    1
     5     9     6    1
     6     7     6    1
     7     6     8    1
     8     6     3    1
     9    15     3    1
    10    15     4    2
    11    17    16    1
    12    31    30    1
    13     3     5    2
    14    16    30    2
    15    16     2    1
    16    30    26    1
    17     2     4    1
    18     2     1    1
    19     4    10    1
    20    26    27    1
    21    26    28    2
    22     1    28    1
    23    28    29    1
    24     5    10    1
    25     5    22    1
    26    10    11    1
    27    24    22    1
    28    22    23    1
    29    22    25    1
    30    11    13    1
    31    11    12    1
    32    11    14    1
