@<TRIPOS>MOLECULE
2,3,4
 44 44 0 0 0
SMALL
GASTEIGER

@<TRIPOS>ATOM
      1 SI         -2.1229    1.7622    2.5500 Si      1  UNL1        0.0000
      2 N          -0.8678    1.6410    3.7193 N.3     1  UNL1        0.0000
      3 C          -1.5187    3.3998    1.8085 C.3     1  UNL1        0.0000
      4 C          -0.3392    3.5035    1.0084 C.2     1  UNL1        0.0000
      5 C           0.2110    4.7945    1.1781 C.2     1  UNL1        0.0000
      6 C          -0.6033    5.5054    2.1023 C.2     1  UNL1        0.0000
      7 C          -1.6584    4.6471    2.4975 C.2     1  UNL1        0.0000
      8 C           0.1545    2.5055   -0.0036 C.3     1  UNL1        0.0000
      9 C           1.3571    5.3745    0.3979 C.3     1  UNL1        0.0000
     10 C          -0.4310    6.9736    2.3930 C.3     1  UNL1        0.0000
     11 C          -2.8807    5.0470    3.2857 C.3     1  UNL1        0.0000
     12 C          -2.2711    0.3524    1.2385 C.3     1  UNL1        0.0000
     13 C          -3.9426    1.8798    3.1798 C.3     1  UNL1        0.0000
     14 C          -0.7343    0.5859    4.7150 C.3     1  UNL1        0.0000
     15 C          -0.6698   -0.8149    4.0719 C.3     1  UNL1        0.0000
     16 C          -1.9318    0.5632    5.6888 C.3     1  UNL1        0.0000
     17 C           0.5742    0.8223    5.5151 C.3     1  UNL1        0.0000
     18 H           1.2410    2.5559   -0.0969 H       1  UNL1        0.0000
     19 H          -0.2683    2.7264   -0.9884 H       1  UNL1        0.0000
     20 H          -0.1370    1.4927    0.2625 H       1  UNL1        0.0000
     21 H           1.7875    6.2283    0.9175 H       1  UNL1        0.0000
     22 H           1.0226    5.7089   -0.5885 H       1  UNL1        0.0000
     23 H           2.1425    4.6327    0.2516 H       1  UNL1        0.0000
     24 H          -1.2771    7.3763    2.9468 H       1  UNL1        0.0000
     25 H          -0.3530    7.5327    1.4584 H       1  UNL1        0.0000
     26 H           0.4763    7.1615    2.9709 H       1  UNL1        0.0000
     27 H          -2.9103    6.1253    3.4429 H       1  UNL1        0.0000
     28 H          -2.9444    4.5591    4.2612 H       1  UNL1        0.0000
     29 H          -3.7774    4.7752    2.7285 H       1  UNL1        0.0000
     30 H          -1.3363   -0.1782    1.0853 H       1  UNL1        0.0000
     31 H          -2.5986    0.7355    0.2777 H       1  UNL1        0.0000
     32 H          -3.0054   -0.3806    1.5576 H       1  UNL1        0.0000
     33 H          -4.0361    2.4356    4.1066 H       1  UNL1        0.0000
     34 H          -4.3444    0.8864    3.3552 H       1  UNL1        0.0000
     35 H          -4.5817    2.3541    2.4423 H       1  UNL1        0.0000
     36 H           0.1066   -0.8571    3.3128 H       1  UNL1        0.0000
     37 H          -1.6197   -1.0477    3.6008 H       1  UNL1        0.0000
     38 H          -0.4632   -1.5667    4.8311 H       1  UNL1        0.0000
     39 H          -2.0558    1.5215    6.1832 H       1  UNL1        0.0000
     40 H          -1.7901   -0.2082    6.4432 H       1  UNL1        0.0000
     41 H          -2.8412    0.3442    5.1390 H       1  UNL1        0.0000
     42 H           0.4336    0.5794    6.5674 H       1  UNL1        0.0000
     43 H           0.8790    1.8771    5.4177 H       1  UNL1        0.0000
     44 H           1.3717    0.1880    5.1323 H       1  UNL1        0.0000
@<TRIPOS>BOND
     1    19     8    1
     2    22     9    1
     3    18     8    1
     4     8    20    1
     5     8     4    1
     6    23     9    1
     7    31    12    1
     8     9    21    1
     9     9     5    1
    10     4     5    2
    11     4     3    1
    12    30    12    1
    13     5     6    1
    14    12    32    1
    15    12     1    1
    16    25    10    1
    17     3     7    1
    18     3     1    1
    19     6    10    1
    20     6     7    2
    21    10    24    1
    22    10    26    1
    23    35    13    1
    24     7    11    1
    25     1    13    1
    26     1     2    1
    27    29    11    1
    28    13    34    1
    29    13    33    1
    30    11    27    1
    31    11    28    1
    32    36    15    1
    33    37    15    1
    34     2    14    1
    35    15    14    1
    36    15    38    1
    37    14    17    1
    38    14    16    1
    39    44    17    1
    40    41    16    1
    41    43    17    1
    42    17    42    1
    43    16    39    1
    44    16    40    1
