@<TRIPOS>MOLECULE
2,3,7
 45 46 0 0 0
SMALL
GASTEIGER

@<TRIPOS>ATOM
      1 SI          0.9857    6.8837    3.4618 Si      1  UNL1        0.0000
      2 N           1.4662    5.9939    2.0686 N.pl3   1  UNL1        0.0000
      3 C           2.2243    4.5679    4.7300 C.2     1  UNL1        0.0000
      4 C           3.5615    4.1476    4.8862 C.2     1  UNL1        0.0000
      5 C           3.6023    2.7336    4.7774 C.2     1  UNL1        0.0000
      6 C           2.3005    2.2600    4.5479 C.2     1  UNL1        0.0000
      7 C           1.4168    3.3933    4.4831 C.3     1  UNL1        0.0000
      8 C           1.6702    5.9367    4.9945 C.3     1  UNL1        0.0000
      9 H           2.4455    6.5423    5.4623 H       1  UNL1        0.0000
     10 H           0.8702    5.8510    5.7326 H       1  UNL1        0.0000
     11 C           4.7290    5.0089    5.2728 C.3     1  UNL1        0.0000
     12 H           4.8395    5.0355    6.3600 H       1  UNL1        0.0000
     13 H           4.6013    6.0332    4.9235 H       1  UNL1        0.0000
     14 H           5.6589    4.6186    4.8582 H       1  UNL1        0.0000
     15 C           4.8335    1.8979    4.9664 C.3     1  UNL1        0.0000
     16 H           5.6450    2.2277    4.3141 H       1  UNL1        0.0000
     17 H           4.6276    0.8508    4.7567 H       1  UNL1        0.0000
     18 H           5.1903    1.9724    5.9956 H       1  UNL1        0.0000
     19 C           1.8809    0.8145    4.5414 C.3     1  UNL1        0.0000
     20 H           2.2095    0.3255    5.4599 H       1  UNL1        0.0000
     21 H           2.3087    0.2622    3.7020 H       1  UNL1        0.0000
     22 H           0.7977    0.7257    4.4876 H       1  UNL1        0.0000
     23 C          -0.0709    3.3545    4.7577 C.3     1  UNL1        0.0000
     24 H          -0.5426    2.4621    4.3451 H       1  UNL1        0.0000
     25 H          -0.5740    4.2299    4.3482 H       1  UNL1        0.0000
     26 H          -0.2418    3.3477    5.8389 H       1  UNL1        0.0000
     27 C           1.7433    8.6494    3.5129 C.3     1  UNL1        0.0000
     28 H           2.7930    8.6311    3.7929 H       1  UNL1        0.0000
     29 H           1.2269    9.2769    4.2318 H       1  UNL1        0.0000
     30 H           1.6739    9.1343    2.5445 H       1  UNL1        0.0000
     31 C          -0.9131    7.0980    3.7160 C.3     1  UNL1        0.0000
     32 H          -1.3025    7.9342    3.1434 H       1  UNL1        0.0000
     33 H          -1.1449    7.2898    4.7594 H       1  UNL1        0.0000
     34 H          -1.4693    6.2138    3.4144 H       1  UNL1        0.0000
     35 C           1.3173    6.4569    0.7863 C.ar    1  UNL1        0.0000
     36 C           2.0250    5.8375   -0.2641 C.ar    1  UNL1        0.0000
     37 H           2.7151    5.0222   -0.0282 H       1  UNL1        0.0000
     38 C           1.8882    6.2488   -1.5738 C.ar    1  UNL1        0.0000
     39 H           2.4497    5.7472   -2.3501 H       1  UNL1        0.0000
     40 C           1.0459    7.2996   -1.9001 C.ar    1  UNL1        0.0000
     41 H           0.9383    7.6205   -2.9249 H       1  UNL1        0.0000
     42 C           0.3480    7.9333   -0.8842 C.ar    1  UNL1        0.0000
     43 H          -0.3115    8.7577   -1.1188 H       1  UNL1        0.0000
     44 C           0.4786    7.5272    0.4270 C.ar    1  UNL1        0.0000
     45 H          -0.0801    8.0295    1.2001 H       1  UNL1        0.0000
@<TRIPOS>BOND
     1    41    40    1
     2    39    38    1
     3    40    38   ar
     4    40    42   ar
     5    38    36   ar
     6    43    42    1
     7    42    44   ar
     8    36    37    1
     9    36    35   ar
    10    44    35   ar
    11    44    45    1
    12    35     2    1
    13     2     1    1
    14    30    27    1
    15    32    31    1
    16    34    31    1
    17     1    27    1
    18     1    31    1
    19     1     8    1
    20    27    28    1
    21    27    29    1
    22    21    19    1
    23    31    33    1
    24    16    15    1
    25    24    23    1
    26    25    23    1
    27     7     6    1
    28     7     3    1
    29     7    23    1
    30    22    19    1
    31    19     6    1
    32    19    20    1
    33     6     5    2
    34     3     4    2
    35     3     8    1
    36    17    15    1
    37    23    26    1
    38     5     4    1
    39     5    15    1
    40    14    11    1
    41     4    11    1
    42    13    11    1
    43    15    18    1
    44     8     9    1
    45     8    10    1
    46    11    12    1
