@<TRIPOS>MOLECULE
2,3,7
 47 47 0 0 0
SMALL
GASTEIGER

@<TRIPOS>ATOM
      1 SI          2.1152    7.6372    7.9383 Si      1  UNL1        0.0000
      2 N           3.1570    6.2885    8.0977 N.3     1  UNL1        0.0000
      3 C           1.0398    6.0849    5.6733 C.2     1  UNL1        0.0000
      4 C           1.5103    5.8972    4.3650 C.2     1  UNL1        0.0000
      5 C           1.2036    4.5701    3.9595 C.2     1  UNL1        0.0000
      6 C           0.5453    3.9179    5.0066 C.2     1  UNL1        0.0000
      7 C           0.4622    4.8229    6.1217 C.3     1  UNL1        0.0000
      8 C           0.9376    7.3755    6.4237 C.3     1  UNL1        0.0000
      9 H          -0.0888    7.4854    6.7785 H       1  UNL1        0.0000
     10 H           1.1033    8.1958    5.7279 H       1  UNL1        0.0000
     11 C           2.1123    6.9606    3.4931 C.3     1  UNL1        0.0000
     12 H           1.3444    7.4196    2.8652 H       1  UNL1        0.0000
     13 H           2.8746    6.5503    2.8315 H       1  UNL1        0.0000
     14 H           2.5644    7.7449    4.0977 H       1  UNL1        0.0000
     15 C           1.5067    3.9585    2.6248 C.3     1  UNL1        0.0000
     16 H           2.2994    3.2094    2.7032 H       1  UNL1        0.0000
     17 H           1.8241    4.7170    1.9140 H       1  UNL1        0.0000
     18 H           0.6220    3.4664    2.2212 H       1  UNL1        0.0000
     19 C          -0.0964    2.5626    4.9296 C.3     1  UNL1        0.0000
     20 H           0.4914    1.8833    4.3137 H       1  UNL1        0.0000
     21 H          -1.0889    2.6404    4.4786 H       1  UNL1        0.0000
     22 H          -0.2165    2.1189    5.9173 H       1  UNL1        0.0000
     23 C          -0.5590    4.7185    7.2363 C.3     1  UNL1        0.0000
     24 H          -0.2889    5.3513    8.0835 H       1  UNL1        0.0000
     25 H          -0.6683    3.6906    7.5877 H       1  UNL1        0.0000
     26 H          -1.5370    5.0464    6.8711 H       1  UNL1        0.0000
     27 C           2.9980    9.3120    7.5773 C.3     1  UNL1        0.0000
     28 H           3.7978    9.1999    6.8500 H       1  UNL1        0.0000
     29 H           3.4285    9.7475    8.4725 H       1  UNL1        0.0000
     30 H           2.2942   10.0349    7.1761 H       1  UNL1        0.0000
     31 C           0.9139    8.0278    9.3967 C.3     1  UNL1        0.0000
     32 H           0.2079    8.8033    9.1146 H       1  UNL1        0.0000
     33 H           1.4419    8.3840   10.2758 H       1  UNL1        0.0000
     34 H           0.3356    7.1576    9.6972 H       1  UNL1        0.0000
     35 C           3.9686    6.0832    9.2942 C.3     1  UNL1        0.0000
     36 C           4.4315    7.3901    9.9515 C.3     1  UNL1        0.0000
     37 H           4.9461    8.0096    9.2236 H       1  UNL1        0.0000
     38 H           5.1113    7.1733   10.7729 H       1  UNL1        0.0000
     39 H           3.5861    7.9453   10.3392 H       1  UNL1        0.0000
     40 C           5.2456    5.2995    8.9261 C.3     1  UNL1        0.0000
     41 H           5.9182    5.9344    8.3521 H       1  UNL1        0.0000
     42 H           4.9956    4.4165    8.3262 H       1  UNL1        0.0000
     43 H           5.7653    4.9771    9.8268 H       1  UNL1        0.0000
     44 C           3.1657    5.2730   10.3315 C.3     1  UNL1        0.0000
     45 H           3.7736    5.0385   11.2030 H       1  UNL1        0.0000
     46 H           2.8079    4.3389    9.8849 H       1  UNL1        0.0000
     47 H           2.3045    5.8529   10.6518 H       1  UNL1        0.0000
@<TRIPOS>BOND
     1    17    15    1
     2    18    15    1
     3    15    16    1
     4    15     5    1
     5    13    11    1
     6    12    11    1
     7    11    14    1
     8    11     4    1
     9     5     4    1
    10     5     6    2
    11    20    19    1
    12     4     3    2
    13    21    19    1
    14    19     6    1
    15    19    22    1
    16     6     7    1
    17     3     7    1
    18     3     8    1
    19    10     8    1
    20     7    23    1
    21     8     9    1
    22     8     1    1
    23    28    27    1
    24    26    23    1
    25    30    27    1
    26    23    25    1
    27    23    24    1
    28    27     1    1
    29    27    29    1
    30     1     2    1
    31     1    31    1
    32     2    35    1
    33    42    40    1
    34    41    40    1
    35    40    35    1
    36    40    43    1
    37    32    31    1
    38    37    36    1
    39    35    36    1
    40    35    44    1
    41    31    34    1
    42    31    33    1
    43    46    44    1
    44    36    39    1
    45    36    38    1
    46    44    47    1
    47    44    45    1
