@<TRIPOS>MOLECULE
2,3,7
 47 47 0 0 0
SMALL
GASTEIGER

@<TRIPOS>ATOM
      1 SI          0.3868    1.6101    5.6279 Si      1  UNL1        0.0000
      2 N          -0.8730    2.7576    5.5096 N.3     1  UNL1        0.0000
      3 C           1.2131    2.7982    3.0551 C.2     1  UNL1        0.0000
      4 C           0.7415    2.6034    1.7413 C.2     1  UNL1        0.0000
      5 C           0.8450    3.8315    1.0408 C.2     1  UNL1        0.0000
      6 C           1.3789    4.8014    1.9031 C.2     1  UNL1        0.0000
      7 C           1.5863    4.1982    3.1831 C.3     1  UNL1        0.0000
      8 C           1.5281    1.7413    4.0679 C.3     1  UNL1        0.0000
      9 C           0.3429    1.2801    1.1554 C.3     1  UNL1        0.0000
     10 C           0.4915    4.0672   -0.3981 C.3     1  UNL1        0.0000
     11 C           1.7495    6.2074    1.5308 C.3     1  UNL1        0.0000
     12 C           2.5288    4.7218    4.2443 C.3     1  UNL1        0.0000
     13 C          -0.1688   -0.2373    5.6594 C.3     1  UNL1        0.0000
     14 C           1.6107    1.7611    7.1119 C.3     1  UNL1        0.0000
     15 C          -1.7415    3.0763    6.6384 C.3     1  UNL1        0.0000
     16 C          -3.1292    3.5185    6.1272 C.3     1  UNL1        0.0000
     17 C          -1.9802    1.8852    7.5765 C.3     1  UNL1        0.0000
     18 C          -1.1248    4.2280    7.4566 C.3     1  UNL1        0.0000
     19 H           2.5493    1.8998    4.4196 H       1  UNL1        0.0000
     20 H           1.5289    0.7722    3.5716 H       1  UNL1        0.0000
     21 H           1.2001    0.7997    0.6761 H       1  UNL1        0.0000
     22 H          -0.4338    1.3944    0.4007 H       1  UNL1        0.0000
     23 H          -0.0229    0.6135    1.9347 H       1  UNL1        0.0000
     24 H           1.3754    4.3590   -0.9670 H       1  UNL1        0.0000
     25 H          -0.2452    4.8682   -0.5008 H       1  UNL1        0.0000
     26 H           0.0860    3.1665   -0.8532 H       1  UNL1        0.0000
     27 H           1.1986    6.5309    0.6501 H       1  UNL1        0.0000
     28 H           2.8158    6.2752    1.3017 H       1  UNL1        0.0000
     29 H           1.5352    6.9024    2.3428 H       1  UNL1        0.0000
     30 H           3.5478    4.3862    4.0280 H       1  UNL1        0.0000
     31 H           2.2631    4.3553    5.2384 H       1  UNL1        0.0000
     32 H           2.5401    5.8116    4.2599 H       1  UNL1        0.0000
     33 H           0.6676   -0.8919    5.4333 H       1  UNL1        0.0000
     34 H          -0.9463   -0.4425    4.9276 H       1  UNL1        0.0000
     35 H          -0.5513   -0.5302    6.6311 H       1  UNL1        0.0000
     36 H           2.4434    1.0736    6.9958 H       1  UNL1        0.0000
     37 H           1.1343    1.5262    8.0588 H       1  UNL1        0.0000
     38 H           2.0273    2.7615    7.1985 H       1  UNL1        0.0000
     39 H          -3.7507    3.8389    6.9618 H       1  UNL1        0.0000
     40 H          -3.6217    2.6827    5.6341 H       1  UNL1        0.0000
     41 H          -3.0439    4.3521    5.4199 H       1  UNL1        0.0000
     42 H          -2.6999    2.1530    8.3473 H       1  UNL1        0.0000
     43 H          -1.0563    1.5842    8.0553 H       1  UNL1        0.0000
     44 H          -2.3669    1.0425    7.0121 H       1  UNL1        0.0000
     45 H          -1.7806    4.5223    8.2738 H       1  UNL1        0.0000
     46 H          -0.9501    5.0961    6.8128 H       1  UNL1        0.0000
     47 H          -0.1727    3.9070    7.8705 H       1  UNL1        0.0000
@<TRIPOS>BOND
     1    24    10    1
     2    26    10    1
     3    25    10    1
     4    10     5    1
     5    22     9    1
     6    27    11    1
     7    21     9    1
     8     5     4    1
     9     5     6    2
    10     9     4    1
    11     9    23    1
    12    28    11    1
    13    11     6    1
    14    11    29    1
    15     4     3    2
    16     6     7    1
    17     3     7    1
    18     3     8    1
    19     7    12    1
    20    20     8    1
    21    30    12    1
    22     8    19    1
    23     8     1    1
    24    12    32    1
    25    12    31    1
    26    34    13    1
    27    41    16    1
    28    33    13    1
    29     2     1    1
    30     2    15    1
    31     1    13    1
    32     1    14    1
    33    40    16    1
    34    13    35    1
    35    16    15    1
    36    16    39    1
    37    15    18    1
    38    15    17    1
    39    46    18    1
    40    36    14    1
    41    44    17    1
    42    14    38    1
    43    14    37    1
    44    18    47    1
    45    18    45    1
    46    17    43    1
    47    17    42    1
