@<TRIPOS>MOLECULE
2,3,4
 47 47 0 0 0
SMALL
GASTEIGER

@<TRIPOS>ATOM
      1 SI         -2.6348    5.4617   16.9981 Si      1  UNL1        0.0000
      2 N          -2.0600    7.0871   17.0803 N.3     1  UNL1        0.0000
      3 C          -1.5656    4.8798   15.5327 C.2     1  UNL1        0.0000
      4 C          -0.0958    4.8615   15.6299 C.3     1  UNL1        0.0000
      5 C           0.4088    4.5569   14.3235 C.2     1  UNL1        0.0000
      6 C          -0.6761    4.4436   13.4567 C.2     1  UNL1        0.0000
      7 C          -1.8726    4.6520   14.1929 C.2     1  UNL1        0.0000
      8 C           0.6666    4.5033   16.8939 C.3     1  UNL1        0.0000
      9 C           1.8529    4.2900   14.0082 C.3     1  UNL1        0.0000
     10 C          -0.6361    4.1622   11.9873 C.3     1  UNL1        0.0000
     11 C          -3.2290    4.5758   13.5659 C.3     1  UNL1        0.0000
     12 C          -4.5330    5.3004   16.7264 C.3     1  UNL1        0.0000
     13 C          -2.3566    4.2903   18.5089 C.3     1  UNL1        0.0000
     14 C          -2.1992    8.0107   18.1963 C.3     1  UNL1        0.0000
     15 C          -0.9731    7.8759   19.1251 C.3     1  UNL1        0.0000
     16 C          -2.2394    9.4497   17.6374 C.3     1  UNL1        0.0000
     17 C          -3.4935    7.7324   18.9853 C.3     1  UNL1        0.0000
     18 C          -3.8026    8.6983   20.1242 C.3     1  UNL1        0.0000
     19 H           0.6121    3.4226   17.0545 H       1  UNL1        0.0000
     20 H           0.2477    4.9908   17.7753 H       1  UNL1        0.0000
     21 H           1.7240    4.7670   16.8128 H       1  UNL1        0.0000
     22 H           2.1099    3.2535   14.2393 H       1  UNL1        0.0000
     23 H           2.5118    4.9347   14.5920 H       1  UNL1        0.0000
     24 H           2.0617    4.4583   12.9533 H       1  UNL1        0.0000
     25 H          -1.3419    3.3719   11.7326 H       1  UNL1        0.0000
     26 H           0.3556    3.8460   11.6738 H       1  UNL1        0.0000
     27 H          -0.9091    5.0507   11.4113 H       1  UNL1        0.0000
     28 H          -3.9926    4.9295   14.2485 H       1  UNL1        0.0000
     29 H          -3.4633    3.5441   13.2942 H       1  UNL1        0.0000
     30 H          -3.2672    5.1682   12.6500 H       1  UNL1        0.0000
     31 H          -5.0569    5.4457   17.6654 H       1  UNL1        0.0000
     32 H          -4.7931    4.3120   16.3642 H       1  UNL1        0.0000
     33 H          -4.9211    6.0316   16.0239 H       1  UNL1        0.0000
     34 H          -2.0809    3.2904   18.1905 H       1  UNL1        0.0000
     35 H          -3.2635    4.2031   19.0993 H       1  UNL1        0.0000
     36 H          -1.5741    4.6459   19.1720 H       1  UNL1        0.0000
     37 H          -0.9505    8.6601   19.8779 H       1  UNL1        0.0000
     38 H          -0.0543    7.9354   18.5281 H       1  UNL1        0.0000
     39 H          -0.9984    6.9100   19.6234 H       1  UNL1        0.0000
     40 H          -2.1153   10.1826   18.4311 H       1  UNL1        0.0000
     41 H          -3.1910    9.6295   17.1398 H       1  UNL1        0.0000
     42 H          -1.4295    9.5860   16.9076 H       1  UNL1        0.0000
     43 H          -4.3193    7.7438   18.2725 H       1  UNL1        0.0000
     44 H          -3.4230    6.7227   19.3873 H       1  UNL1        0.0000
     45 H          -4.7160    8.3839   20.6254 H       1  UNL1        0.0000
     46 H          -3.9537    9.7106   19.7588 H       1  UNL1        0.0000
     47 H          -3.0041    8.7082   20.8612 H       1  UNL1        0.0000
@<TRIPOS>BOND
     1    27    10    1
     2    26    10    1
     3    25    10    1
     4    10     6    1
     5    30    11    1
     6    24     9    1
     7    29    11    1
     8     6     7    1
     9     6     5    2
    10    11     7    1
    11    11    28    1
    12     9    22    1
    13     9     5    1
    14     9    23    1
    15     7     3    2
    16     5     4    1
    17     3     4    1
    18     3     1    1
    19     4     8    1
    20    33    12    1
    21    32    12    1
    22    12     1    1
    23    12    31    1
    24    21     8    1
    25     8    19    1
    26     8    20    1
    27    42    16    1
    28     1     2    1
    29     1    13    1
    30     2    14    1
    31    41    16    1
    32    16    14    1
    33    16    40    1
    34    34    13    1
    35    14    17    1
    36    14    15    1
    37    43    17    1
    38    13    35    1
    39    13    36    1
    40    38    15    1
    41    17    44    1
    42    17    18    1
    43    15    39    1
    44    15    37    1
    45    46    18    1
    46    18    45    1
    47    18    47    1
