@<TRIPOS>MOLECULE
2,3,7
 53 58 0 0 0
SMALL
GASTEIGER

@<TRIPOS>ATOM
      1 C           3.2269   16.6104    2.9380 C.ar    1  UNL1       -0.0211
      2 N           3.7224   18.9261    3.7113 N.3     1  UNL1       -0.2151
      3 C           0.9910   19.9791    3.1368 C.3     1  UNL1       -0.0008
      4 C           2.4506   16.9315    1.8159 C.ar    1  UNL1       -0.0381
      5 C           3.9119   18.7500    0.7459 C.3     1  UNL1       -0.0008
      6 C           0.7073   18.8406    4.0044 C.ar    1  UNL1       -0.0381
      7 C           2.6562   18.1455    1.0330 C.3     1  UNL1       -0.0008
      8 C           1.7468   21.1315    3.4933 C.3     1  UNL1       -0.0008
      9 C           1.6307   18.3455    4.9355 C.ar    1  UNL1       -0.0211
     10 C           6.3031   18.3458    0.3320 C.ar    1  UNL1       -0.0580
     11 H           6.1712   18.8214   -0.6310 H       1  UNL1        0.0620
     12 C          -0.5316   18.2034    3.9015 C.ar    1  UNL1       -0.0580
     13 H          -1.2467   18.5672    3.1760 H       1  UNL1        0.0620
     14 C           3.0241   18.9376    4.9843 C.3     1  UNL1        0.0768
     15 C           7.5387   17.8454    0.6854 C.ar    1  UNL1       -0.0615
     16 H           8.3750   17.9325    0.0040 H       1  UNL1        0.0618
     17 C           4.2557   17.6034    3.4380 C.3     1  UNL1        0.0768
     18 C           5.2013   18.2458    1.1888 C.ar    1  UNL1       -0.0381
     19 C           6.6317   17.1423    2.7834 C.ar    1  UNL1       -0.0564
     20 H           6.7685   16.6800    3.7526 H       1  UNL1        0.0621
     21 C           5.3888   17.6536    2.4454 C.ar    1  UNL1       -0.0211
     22 C           0.0497   16.6656    5.6395 C.ar    1  UNL1       -0.0614
     23 H          -0.1957   15.8206    6.2686 H       1  UNL1        0.0618
     24 C           2.3484   22.6534    5.3322 C.ar    1  UNL1       -0.0580
     25 H           1.9242   23.4589    4.7475 H       1  UNL1        0.0620
     26 C           2.9986   15.4247    3.6169 C.ar    1  UNL1       -0.0564
     27 H           3.6083   15.1818    4.4779 H       1  UNL1        0.0621
     28 C           1.1955   14.8846    2.1442 C.ar    1  UNL1       -0.0615
     29 H           0.3931   14.2248    1.8421 H       1  UNL1        0.0618
     30 C           2.3487   21.3607    4.7971 C.ar    1  UNL1       -0.0381
     31 C           1.4315   16.0511    1.4450 C.ar    1  UNL1       -0.0580
     32 H           0.8172   16.2950    0.5884 H       1  UNL1        0.0620
     33 C           3.4254   20.6029    6.8155 C.ar    1  UNL1       -0.0564
     34 H           3.8615   19.8007    7.3970 H       1  UNL1        0.0621
     35 C           1.9873   14.5620    3.2327 C.ar    1  UNL1       -0.0614
     36 H           1.8077   13.6522    3.7892 H       1  UNL1        0.0618
     37 C           2.8628   22.9155    6.5847 C.ar    1  UNL1       -0.0615
     38 H           2.8475   23.9236    6.9779 H       1  UNL1        0.0618
     39 C          -0.8578   17.1270    4.7017 C.ar    1  UNL1       -0.0615
     40 H          -1.8206   16.6450    4.5955 H       1  UNL1        0.0618
     41 C           7.7054   17.2273    1.9142 C.ar    1  UNL1       -0.0614
     42 H           8.6698   16.8287    2.1992 H       1  UNL1        0.0618
     43 C           2.9238   20.3298    5.5529 C.ar    1  UNL1       -0.0211
     44 C           1.2837   17.2813    5.7514 C.ar    1  UNL1       -0.0564
     45 H           2.0010   16.9111    6.4728 H       1  UNL1        0.0621
     46 C           3.3950   21.8832    7.3403 C.ar    1  UNL1       -0.0614
     47 H           3.7975   22.0778    8.3253 H       1  UNL1        0.0618
     48 H           0.2082   20.1617    2.4032 H       1  UNL1        0.0361
     49 H           1.8981   18.2877    0.2635 H       1  UNL1        0.0361
     50 H           3.9569   19.2776   -0.2081 H       1  UNL1        0.0361
     51 H           3.6118   18.3368    5.7014 H       1  UNL1        0.0576
     52 H           1.4391   22.0491    2.9902 H       1  UNL1        0.0361
     53 H           4.6693   17.2014    4.3803 H       1  UNL1        0.0576
@<TRIPOS>BOND
     1    11    10    1
     2    50     5    1
     3    16    15    1
     4    49     7    1
     5    10    15   ar
     6    10    18   ar
     7    32    31    1
     8    15    41   ar
     9     5     7    1
    10     5    18    1
    11     7     4    1
    12    18    21   ar
    13    31     4   ar
    14    31    28   ar
    15     4     1   ar
    16    29    28    1
    17    41    42    1
    18    41    19   ar
    19    28    35   ar
    20    48     3    1
    21    21    19   ar
    22    21    17    1
    23    19    20    1
    24     1    17    1
    25     1    26   ar
    26    52     8    1
    27     3     8    1
    28     3     6    1
    29    13    12    1
    30    35    26   ar
    31    35    36    1
    32    17     2    1
    33    17    53    1
    34     8    30    1
    35    26    27    1
    36     2    14    1
    37    12     6   ar
    38    12    39   ar
    39     6     9   ar
    40    40    39    1
    41    39    22   ar
    42    25    24    1
    43    30    24   ar
    44    30    43   ar
    45     9    14    1
    46     9    44   ar
    47    14    43    1
    48    14    51    1
    49    24    37   ar
    50    43    33   ar
    51    22    44   ar
    52    22    23    1
    53    44    45    1
    54    37    38    1
    55    37    46   ar
    56    33    46   ar
    57    33    34    1
    58    46    47    1
