@<TRIPOS>MOLECULE
4,5,27
 37 38 0 0 0
SMALL
GASTEIGER

@<TRIPOS>ATOM
      1 CL          2.6372    8.6040   22.5917 Cl      1  UNL1        0.0000
      2 N          -0.1466   11.0930   14.8543 N.pl3   1  UNL1        0.0000
      3 C           0.7404   10.8271   13.8247 C.3     1  UNL1        0.0000
      4 C           0.8893    9.4554   13.7842 C.3     1  UNL1        0.0000
      5 C           0.1234    8.9068   14.7731 C.2     1  UNL1        0.0000
      6 C          -0.5528    9.9061   15.4372 C.2     1  UNL1        0.0000
      7 C           1.2797   11.8855   12.9230 C.3     1  UNL1        0.0000
      8 H           0.4643   12.4370   12.4521 H       1  UNL1        0.0000
      9 H           1.8759   11.4219   12.1410 H       1  UNL1        0.0000
     10 H           1.9025   12.5967   13.4631 H       1  UNL1        0.0000
     11 C          -1.5181    9.8528   16.5690 C.3     1  UNL1        0.0000
     12 H          -2.4406   10.3751   16.3126 H       1  UNL1        0.0000
     13 H          -1.0965   10.3162   17.4614 H       1  UNL1        0.0000
     14 H          -1.7594    8.8162   16.7900 H       1  UNL1        0.0000
     15 C          -0.2089   12.3549   15.5344 C.3     1  UNL1        0.0000
     16 H          -1.1797   12.4538   16.0177 H       1  UNL1        0.0000
     17 H          -0.1269   13.1593   14.8061 H       1  UNL1        0.0000
     18 SI          1.2587   12.4204   16.8317 Si      1  UNL1        0.0000
     19 C           2.6845   13.4215   16.0219 C.3     1  UNL1        0.0000
     20 H           3.3929   13.7619   16.7714 H       1  UNL1        0.0000
     21 H           2.3146   14.3017   15.5051 H       1  UNL1        0.0000
     22 H           3.2387   12.8207   15.3056 H       1  UNL1        0.0000
     23 C           0.5597   13.4688   18.2699 C.3     1  UNL1        0.0000
     24 H           0.0984   12.8316   19.0170 H       1  UNL1        0.0000
     25 H          -0.1881   14.1791   17.9323 H       1  UNL1        0.0000
     26 H           1.3417   14.0321   18.7660 H       1  UNL1        0.0000
     27 N           1.6943   10.8092   17.1842 N.pl3   1  UNL1        0.0000
     28 C           1.8780   10.3483   18.4635 C.ar    1  UNL1        0.0000
     29 C           1.4457    9.0487   18.8088 C.ar    1  UNL1        0.0000
     30 H           0.8690    8.4755   18.0843 H       1  UNL1        0.0000
     31 C           1.6714    8.5200   20.0634 C.ar    1  UNL1        0.0000
     32 H           1.3275    7.5263   20.3084 H       1  UNL1        0.0000
     33 C           2.3288    9.2765   21.0211 C.ar    1  UNL1        0.0000
     34 C           2.7292   10.5718   20.7330 C.ar    1  UNL1        0.0000
     35 H           3.2212   11.1638   21.4898 H       1  UNL1        0.0000
     36 C           2.4992   11.0977   19.4793 C.ar    1  UNL1        0.0000
     37 H           2.8127   12.1057   19.2557 H       1  UNL1        0.0000
@<TRIPOS>BOND
     1     9     7    1
     2     8     7    1
     3     7    10    1
     4     7     3    1
     5     4     3    1
     6     4     5    1
     7     3     2    1
     8     5     6    2
     9    17    15    1
    10     2     6    1
    11     2    15    1
    12    22    19    1
    13     6    11    1
    14    21    19    1
    15    15    16    1
    16    15    18    1
    17    19    20    1
    18    19    18    1
    19    12    11    1
    20    11    14    1
    21    11    13    1
    22    18    27    1
    23    18    23    1
    24    27    28    1
    25    25    23    1
    26    30    29    1
    27    23    26    1
    28    23    24    1
    29    28    29   ar
    30    28    36   ar
    31    29    31   ar
    32    37    36    1
    33    36    34   ar
    34    31    32    1
    35    31    33   ar
    36    34    33   ar
    37    34    35    1
    38    33     1    1
