@<TRIPOS>MOLECULE
2,3,4
 51 52 0 0 0
SMALL
GASTEIGER

@<TRIPOS>ATOM
      1 SI          6.7631    2.1254    1.9044 Si      1  UNL1        0.0000
      2 N           6.0270    3.6679    2.1659 N.pl3   1  UNL1        0.0000
      3 C           6.4611    1.4127    3.6337 C.2     1  UNL1        0.0000
      4 C           5.1166    1.3364    4.2249 C.3     1  UNL1        0.0000
      5 C           5.3011    0.9756    5.6071 C.2     1  UNL1        0.0000
      6 C           6.6619    0.8822    5.8592 C.2     1  UNL1        0.0000
      7 C           7.3654    1.1568    4.6532 C.2     1  UNL1        0.0000
      8 C           3.9109    0.8091    3.4541 C.3     1  UNL1        0.0000
      9 H           2.9776    0.9745    3.9980 H       1  UNL1        0.0000
     10 H           4.0236   -0.2712    3.3204 H       1  UNL1        0.0000
     11 H           3.8271    1.2571    2.4632 H       1  UNL1        0.0000
     12 C           4.1757    0.6519    6.5459 C.3     1  UNL1        0.0000
     13 H           3.3286    1.3220    6.3899 H       1  UNL1        0.0000
     14 H           4.4883    0.7406    7.5848 H       1  UNL1        0.0000
     15 H           3.8290   -0.3722    6.3896 H       1  UNL1        0.0000
     16 C           7.3128    0.5113    7.1570 C.3     1  UNL1        0.0000
     17 H           6.5954    0.5231    7.9755 H       1  UNL1        0.0000
     18 H           8.1299    1.1916    7.4054 H       1  UNL1        0.0000
     19 H           7.7306   -0.4956    7.0989 H       1  UNL1        0.0000
     20 C           8.8574    1.1384    4.5284 C.3     1  UNL1        0.0000
     21 H           9.3065    0.6068    5.3650 H       1  UNL1        0.0000
     22 H           9.2732    2.1489    4.5038 H       1  UNL1        0.0000
     23 H           9.1512    0.6389    3.6087 H       1  UNL1        0.0000
     24 C           5.9922    1.0758    0.4825 C.3     1  UNL1        0.0000
     25 H           4.9441    0.8364    0.6268 H       1  UNL1        0.0000
     26 H           6.5232    0.1357    0.3707 H       1  UNL1        0.0000
     27 H           6.0820    1.6129   -0.4578 H       1  UNL1        0.0000
     28 C           8.5952    2.1699    1.3415 C.3     1  UNL1        0.0000
     29 H           8.6684    2.7060    0.4004 H       1  UNL1        0.0000
     30 H           8.9698    1.1662    1.1714 H       1  UNL1        0.0000
     31 H           9.2532    2.6528    2.0533 H       1  UNL1        0.0000
     32 C           5.9680    4.7090    1.2455 C.ar    1  UNL1        0.0000
     33 C           7.0260    5.6280    1.1073 C.ar    1  UNL1        0.0000
     34 C           6.9221    6.6798    0.2106 C.ar    1  UNL1        0.0000
     35 H           7.7500    7.3715    0.1208 H       1  UNL1        0.0000
     36 C           5.7911    6.8695   -0.5677 C.ar    1  UNL1        0.0000
     37 C           4.7406    5.9727   -0.4184 C.ar    1  UNL1        0.0000
     38 H           3.8450    6.1087   -1.0109 H       1  UNL1        0.0000
     39 C           4.8103    4.9097    0.4642 C.ar    1  UNL1        0.0000
     40 C           8.2631    5.4876    1.9472 C.3     1  UNL1        0.0000
     41 H           9.0464    4.9796    1.3875 H       1  UNL1        0.0000
     42 H           8.0400    4.8892    2.8322 H       1  UNL1        0.0000
     43 H           8.6441    6.4644    2.2458 H       1  UNL1        0.0000
     44 C           5.6994    7.9988   -1.5511 C.3     1  UNL1        0.0000
     45 H           6.4464    8.7602   -1.3387 H       1  UNL1        0.0000
     46 H           4.7122    8.4574   -1.5231 H       1  UNL1        0.0000
     47 H           5.8674    7.6315   -2.5643 H       1  UNL1        0.0000
     48 C           3.6499    3.9679    0.6077 C.3     1  UNL1        0.0000
     49 H           2.7888    4.3285    0.0487 H       1  UNL1        0.0000
     50 H           3.3710    3.8582    1.6685 H       1  UNL1        0.0000
     51 H           3.9227    2.9816    0.2349 H       1  UNL1        0.0000
@<TRIPOS>BOND
     1    47    44    1
     2    44    46    1
     3    44    45    1
     4    44    36    1
     5    38    37    1
     6    36    37   ar
     7    36    34   ar
     8    27    24    1
     9    37    39   ar
    10    49    48    1
    11    35    34    1
    12    34    33   ar
    13    51    48    1
    14    26    24    1
    15    29    28    1
    16    39    48    1
    17    39    32   ar
    18    24    25    1
    19    24     1    1
    20    48    50    1
    21    33    32   ar
    22    33    40    1
    23    30    28    1
    24    32     2    1
    25    28     1    1
    26    28    31    1
    27    41    40    1
    28     1     2    1
    29     1     3    1
    30    40    43    1
    31    40    42    1
    32    11     8    1
    33    10     8    1
    34     8     9    1
    35     8     4    1
    36    23    20    1
    37     3     4    1
    38     3     7    2
    39     4     5    1
    40    22    20    1
    41    20     7    1
    42    20    21    1
    43     7     6    1
    44     5     6    2
    45     5    12    1
    46     6    16    1
    47    15    12    1
    48    13    12    1
    49    12    14    1
    50    19    16    1
    51    16    18    1
    52    16    17    1
