@<TRIPOS>MOLECULE
2,6,11
 62 65 0 0 0
SMALL
GASTEIGER

@<TRIPOS>ATOM
      1 P           3.7656    3.9194   15.4274 P.3     1  UNL1        0.0355
      2 N           3.8139    3.0596   14.0683 N.pl3   1  UNL1       -0.2218
      3 C           5.1845    3.7135   16.5730 C.ar    1  UNL1       -0.0044
      4 C           4.4697    6.6919   15.5022 C.2     1  UNL1       -0.0741
      5 H           5.2303    6.6145   16.2612 H       1  UNL1        0.0579
      6 C           2.8245    6.1513   13.9856 C.3     1  UNL1       -0.0137
      7 H           1.9617    5.6355   13.5753 H       1  UNL1        0.0323
      8 C           3.4396    1.7038   13.9966 C.ar    1  UNL1        0.0593
      9 C           3.0409    7.5240   13.9500 C.3     1  UNL1       -0.0120
     10 H           2.4930    8.2296   13.3480 H       1  UNL1        0.0352
     11 C           3.7289    5.6128   14.9721 C.3     1  UNL1        0.0482
     12 C           5.8445    1.0282   14.4093 C.3     1  UNL1       -0.0197
     13 H           5.9160    2.1122   14.5414 H       1  UNL1        0.0344
     14 C           6.4399    4.0255   16.0595 C.ar    1  UNL1       -0.0527
     15 H           6.5169    4.3909   15.0403 H       1  UNL1        0.0624
     16 C           4.4031    0.6896   14.1163 C.ar    1  UNL1       -0.0216
     17 C           5.0711    3.2814   17.8876 C.ar    1  UNL1       -0.0527
     18 H           4.0990    3.0601   18.3043 H       1  UNL1        0.0624
     19 C           2.2044    2.0986   16.8556 C.ar    1  UNL1       -0.0527
     20 H           2.9616    1.3766   16.5808 H       1  UNL1        0.0624
     21 C           2.3385    3.4255   16.4574 C.ar    1  UNL1       -0.0044
     22 C           1.3664    4.3554   16.8025 C.ar    1  UNL1       -0.0527
     23 H           1.4848    5.3830   16.4872 H       1  UNL1        0.0624
     24 C           4.0553    7.8465   14.8644 C.2     1  UNL1       -0.0830
     25 H           4.4382    8.8351   15.0475 H       1  UNL1        0.0572
     26 C           2.1006    1.3668   13.7210 C.ar    1  UNL1       -0.0216
     27 C           1.7594    0.0323   13.5622 C.ar    1  UNL1       -0.0565
     28 H           0.7373   -0.2347   13.3421 H       1  UNL1        0.0621
     29 C           6.2046    3.1459   18.6711 C.ar    1  UNL1       -0.0611
     30 H           6.1110    2.8095   19.6935 H       1  UNL1        0.0618
     31 C           2.7075   -0.9667   13.6809 C.ar    1  UNL1       -0.0611
     32 H           2.4229   -2.0014   13.5591 H       1  UNL1        0.0618
     33 C           7.5694    3.8879   16.8433 C.ar    1  UNL1       -0.0611
     34 H           8.5403    4.1331   16.4393 H       1  UNL1        0.0618
     35 C           1.1052    1.7106   17.5999 C.ar    1  UNL1       -0.0611
     36 H           1.0020    0.6805   17.9094 H       1  UNL1        0.0618
     37 C           1.0632    2.4498   13.5402 C.3     1  UNL1       -0.0197
     38 H           1.4205    3.3465   14.0610 H       1  UNL1        0.0344
     39 C           4.0198   -0.6330   13.9543 C.ar    1  UNL1       -0.0565
     40 H           4.7580   -1.4163   14.0452 H       1  UNL1        0.0621
     41 C           0.2692    3.9619   17.5479 C.ar    1  UNL1       -0.0611
     42 H          -0.4850    4.6857   17.8198 H       1  UNL1        0.0618
     43 C           7.4527    3.4417   18.1504 C.ar    1  UNL1       -0.0617
     44 H           8.3341    3.3317   18.7649 H       1  UNL1        0.0618
     45 C          -0.2994    2.0854   14.1276 C.3     1  UNL1       -0.0586
     46 H          -0.9344    2.9687   14.1587 H       1  UNL1        0.0235
     47 H          -0.1913    1.7066   15.1411 H       1  UNL1        0.0235
     48 H          -0.8026    1.3334   13.5243 H       1  UNL1        0.0235
     49 C           6.7463    0.6506   13.2325 C.3     1  UNL1       -0.0586
     50 H           6.6715   -0.4111   13.0069 H       1  UNL1        0.0235
     51 H           7.7836    0.8794   13.4692 H       1  UNL1        0.0235
     52 H           6.4585    1.2207   12.3514 H       1  UNL1        0.0235
     53 C           0.1385    2.6416   17.9471 C.ar    1  UNL1       -0.0617
     54 H          -0.7187    2.3357   18.5289 H       1  UNL1        0.0618
     55 C           6.3187    0.3645   15.7031 C.3     1  UNL1       -0.0586
     56 H           5.6666    0.6352   16.5318 H       1  UNL1        0.0235
     57 H           7.3268    0.6951   15.9456 H       1  UNL1        0.0235
     58 H           6.3252   -0.7189   15.6097 H       1  UNL1        0.0235
     59 C           0.9326    2.7878   12.0516 C.3     1  UNL1       -0.0586
     60 H           1.8923    3.1313   11.6597 H       1  UNL1        0.0235
     61 H           0.1933    3.5734   11.9049 H       1  UNL1        0.0235
     62 H           0.6172    1.9085   11.4913 H       1  UNL1        0.0235
@<TRIPOS>BOND
     1    62    59    1
     2    60    59    1
     3    61    59    1
     4    59    37    1
     5    52    49    1
     6    50    49    1
     7    49    51    1
     8    49    12    1
     9    28    27    1
    10    10     9    1
    11    48    45    1
    12    37    26    1
    13    37    38    1
    14    37    45    1
    15    32    31    1
    16    27    31   ar
    17    27    26   ar
    18     7     6    1
    19    31    39   ar
    20    26     8   ar
    21     9     6    1
    22     9    24    1
    23    39    40    1
    24    39    16   ar
    25     6    11    1
    26     8     2    1
    27     8    16   ar
    28     2     1    1
    29    16    12    1
    30    45    46    1
    31    45    47    1
    32    12    13    1
    33    12    55    1
    34    24    25    1
    35    24     4    2
    36    11     1    1
    37    11     4    1
    38    15    14    1
    39     1    21    1
    40     1     3    1
    41     4     5    1
    42    58    55    1
    43    55    57    1
    44    55    56    1
    45    14     3   ar
    46    14    33   ar
    47    34    33    1
    48    21    22   ar
    49    21    19   ar
    50    23    22    1
    51     3    17   ar
    52    20    19    1
    53    22    41   ar
    54    33    43   ar
    55    19    35   ar
    56    41    42    1
    57    41    53   ar
    58    35    36    1
    59    35    53   ar
    60    17    18    1
    61    17    29   ar
    62    53    54    1
    63    43    29   ar
    64    43    44    1
    65    29    30    1
