@<TRIPOS>MOLECULE
6,10,46
 50 53 0 0 0
SMALL
GASTEIGER

@<TRIPOS>ATOM
      1 P           6.6459    5.3903    1.0941 P.3     1  UNL1        0.0391
      2 C           9.5550    3.4779    1.7568 C.ar    1  UNL1       -0.0273
      3 C           8.1986    3.2596    1.4861 C.ar    1  UNL1        0.0583
      4 C           7.7757    4.6244   -1.3138 C.ar    1  UNL1       -0.0527
      5 H           8.6954    4.5749   -0.7469 H       1  UNL1        0.0624
      6 C           4.0719    4.6204    1.8164 C.2     1  UNL1       -0.0667
      7 H           3.9665    3.8394    1.0738 H       1  UNL1        0.0585
      8 C           6.6028    5.0390   -0.6886 C.ar    1  UNL1       -0.0042
      9 C           7.5759    6.9620    1.2291 C.ar    1  UNL1       -0.0042
     10 C           5.0400    5.6689    1.7728 C.3     1  UNL1        0.0663
     11 C           7.7998    2.1022    0.8016 C.ar    1  UNL1       -0.0273
     12 C           4.7277    6.5879    2.8104 C.2     1  UNL1       -0.0667
     13 H           5.2163    7.5364    2.9758 H       1  UNL1        0.0585
     14 C           7.8756    7.4124    2.5121 C.ar    1  UNL1       -0.0527
     15 H           7.5641    6.8157    3.3653 H       1  UNL1        0.0624
     16 C          10.4932    2.5591    1.3123 C.ar    1  UNL1       -0.0570
     17 H          11.5399    2.7337    1.5177 H       1  UNL1        0.0621
     18 C           8.7647    1.2047    0.3707 C.ar    1  UNL1       -0.0570
     19 H           8.4569    0.3168   -0.1632 H       1  UNL1        0.0621
     20 C           3.5578    6.1464    3.4260 C.2     1  UNL1       -0.0647
     21 H           2.9997    6.6839    4.1752 H       1  UNL1        0.0615
     22 C           3.1496    4.9405    2.8164 C.2     1  UNL1       -0.0647
     23 H           2.2164    4.4319    3.0019 H       1  UNL1        0.0615
     24 C           5.4173    5.1140   -1.4097 C.ar    1  UNL1       -0.0527
     25 H           4.5160    5.4494   -0.9160 H       1  UNL1        0.0624
     26 C           8.6514    8.9011    0.3105 C.ar    1  UNL1       -0.0611
     27 H           8.9539    9.4826   -0.5481 H       1  UNL1        0.0618
     28 C           6.5709    4.3451   -3.3681 C.ar    1  UNL1       -0.0617
     29 H           6.5568    4.0706   -4.4124 H       1  UNL1        0.0618
     30 C           7.9636    7.7137    0.1271 C.ar    1  UNL1       -0.0527
     31 H           7.7244    7.3726   -0.8704 H       1  UNL1        0.0624
     32 C          10.1067    1.4305    0.6135 C.ar    1  UNL1       -0.0611
     33 H          10.8480    0.7256    0.2678 H       1  UNL1        0.0618
     34 C           5.4055    4.7691   -2.7495 C.ar    1  UNL1       -0.0611
     35 H           4.4855    4.8289   -3.3123 H       1  UNL1        0.0618
     36 C           9.9826    4.6975    2.5139 C.3     1  UNL1       -0.0379
     37 H           9.8518    5.5933    1.9037 H       1  UNL1        0.0278
     38 H          11.0292    4.6259    2.7992 H       1  UNL1        0.0278
     39 H           9.3740    4.8104    3.4123 H       1  UNL1        0.0278
     40 C           8.5584    8.6006    2.6906 C.ar    1  UNL1       -0.0611
     41 H           8.7868    8.9484    3.6875 H       1  UNL1        0.0618
     42 C           7.7556    4.2756   -2.6516 C.ar    1  UNL1       -0.0611
     43 H           8.6639    3.9487   -3.1354 H       1  UNL1        0.0618
     44 C           8.9492    9.3453    1.5881 C.ar    1  UNL1       -0.0617
     45 H           9.4850   10.2728    1.7250 H       1  UNL1        0.0618
     46 N           7.2094    4.1556    1.9542 N.pl3   1  UNL1       -0.2215
     47 C           6.3478    1.8344    0.5436 C.3     1  UNL1       -0.0379
     48 H           5.9721    2.4869   -0.2471 H       1  UNL1        0.0278
     49 H           5.7593    2.0226    1.4490 H       1  UNL1        0.0278
     50 H           6.2033    0.8031    0.2295 H       1  UNL1        0.0278
@<TRIPOS>BOND
     1    29    28    1
     2    28    34   ar
     3    28    42   ar
     4    35    34    1
     5    43    42    1
     6    34    24   ar
     7    42     4   ar
     8    24    25    1
     9    24     8   ar
    10     4     5    1
    11     4     8   ar
    12    31    30    1
    13     8     1    1
    14    27    26    1
    15    48    47    1
    16    19    18    1
    17    30    26   ar
    18    30     9   ar
    19    50    47    1
    20    33    32    1
    21    26    44   ar
    22    18    32   ar
    23    18    11   ar
    24    47    11    1
    25    47    49    1
    26    32    16   ar
    27    11     3   ar
    28     7     6    1
    29     1     9    1
    30     1    10    1
    31     1    46    1
    32     9    14   ar
    33    16    17    1
    34    16     2   ar
    35     3     2   ar
    36     3    46    1
    37    44    45    1
    38    44    40   ar
    39     2    36    1
    40    10     6    1
    41    10    12    1
    42     6    22    2
    43    37    36    1
    44    14    40   ar
    45    14    15    1
    46    36    38    1
    47    36    39    1
    48    40    41    1
    49    12    13    1
    50    12    20    2
    51    22    23    1
    52    22    20    1
    53    20    21    1
