@<TRIPOS>MOLECULE
2,7,10
 46 46 0 0 0
SMALL
GASTEIGER

@<TRIPOS>ATOM
      1 N           3.8117    6.3079    7.4491 N.2     1  UNL1       -0.2787
      2 N           1.4759    3.7805    7.9925 N.3     1  UNL1       -0.2211
      3 C           0.5490    4.8921    4.8920 C.2     1  UNL1       -0.0714
      4 C           1.8294    4.4596    5.5558 C.3     1  UNL1       -0.0060
      5 H           2.6771    4.9733    5.0985 H       1  UNL1        0.0332
      6 H           2.0198    3.3930    5.4519 H       1  UNL1        0.0332
      7 C           1.6709    4.8836    7.0403 C.3     1  UNL1        0.0875
      8 C           0.4636    2.7426    7.9546 C.3     1  UNL1        0.0292
      9 C          -0.1770    5.6767    5.6842 C.2     1  UNL1       -0.0714
     10 C           2.9135    5.4786    7.7208 C.2     1  UNL1        0.0812
     11 C           4.1487    7.1656    6.3177 C.3     1  UNL1        0.0539
     12 C           0.8733    1.7581    9.0695 C.3     1  UNL1       -0.0458
     13 H           1.8612    1.3482    8.8541 H       1  UNL1        0.0248
     14 H           0.1570    0.9413    9.1479 H       1  UNL1        0.0248
     15 H           0.9222    2.2885   10.0224 H       1  UNL1        0.0248
     16 C           0.2780    4.4555    3.4903 C.3     1  UNL1       -0.0435
     17 H          -0.7027    4.7773    3.1510 H       1  UNL1        0.0274
     18 H           0.3352    3.3696    3.4123 H       1  UNL1        0.0274
     19 H           1.0293    4.8726    2.8185 H       1  UNL1        0.0274
     20 C           0.4923    5.8993    7.0130 C.3     1  UNL1       -0.0060
     21 H          -0.1812    5.7412    7.8567 H       1  UNL1        0.0332
     22 H           0.8671    6.9248    7.0827 H       1  UNL1        0.0332
     23 C          -1.4828    6.3456    5.4097 C.3     1  UNL1       -0.0435
     24 H          -1.8769    6.0751    4.4341 H       1  UNL1        0.0274
     25 H          -1.3608    7.4287    5.4447 H       1  UNL1        0.0274
     26 H          -2.2163    6.0723    6.1691 H       1  UNL1        0.0274
     27 C           5.0591    6.3775    5.3648 C.3     1  UNL1       -0.0403
     28 H           4.5287    5.5582    4.8869 H       1  UNL1        0.0253
     29 H           5.8958    5.9593    5.9193 H       1  UNL1        0.0253
     30 H           5.4449    7.0377    4.5908 H       1  UNL1        0.0253
     31 C          -0.9528    3.2701    8.2785 C.3     1  UNL1       -0.0458
     32 H          -0.9206    3.8995    9.1661 H       1  UNL1        0.0248
     33 H          -1.6246    2.4345    8.4670 H       1  UNL1        0.0248
     34 H          -1.3506    3.8398    7.4430 H       1  UNL1        0.0248
     35 C           2.9714    7.7913    5.5591 C.3     1  UNL1       -0.0403
     36 H           2.3813    8.4085    6.2342 H       1  UNL1        0.0253
     37 H           2.3216    7.0469    5.1127 H       1  UNL1        0.0253
     38 H           3.3554    8.4312    4.7663 H       1  UNL1        0.0253
     39 C           4.9837    8.3046    6.9299 C.3     1  UNL1       -0.0403
     40 H           4.3777    8.8956    7.6127 H       1  UNL1        0.0253
     41 H           5.3653    8.9598    6.1504 H       1  UNL1        0.0253
     42 H           5.8217    7.8921    7.4854 H       1  UNL1        0.0253
     43 C           0.3599    1.9424    6.6413 C.3     1  UNL1       -0.0458
     44 H           1.3294    1.5415    6.3540 H       1  UNL1        0.0248
     45 H          -0.0362    2.5591    5.8404 H       1  UNL1        0.0248
     46 H          -0.3223    1.1073    6.7904 H       1  UNL1        0.0248
@<TRIPOS>BOND
     1    19    16    1
     2    17    16    1
     3    18    16    1
     4    16     3    1
     5    24    23    1
     6    30    27    1
     7    38    35    1
     8    28    27    1
     9     3     4    1
    10     3     9    2
    11     5     4    1
    12    37    35    1
    13    27    29    1
    14    27    11    1
    15    23    25    1
    16    23     9    1
    17    23    26    1
    18     6     4    1
    19     4     7    1
    20    35    36    1
    21    35    11    1
    22     9    20    1
    23    45    43    1
    24    41    39    1
    25    11    39    1
    26    11     1    1
    27    44    43    1
    28    43    46    1
    29    43     8    1
    30    39    42    1
    31    39    40    1
    32    20     7    1
    33    20    22    1
    34    20    21    1
    35     7    10    1
    36     7     2    1
    37    34    31    1
    38     1    10    2
    39     8     2    1
    40     8    31    1
    41     8    12    1
    42    31    33    1
    43    31    32    1
    44    13    12    1
    45    12    14    1
    46    12    15    1
