@<TRIPOS>MOLECULE
1,11,12
 38 37 0 0 0
SMALL
GASTEIGER

@<TRIPOS>ATOM
      1 N          -1.2609   12.4356   17.5737 N.3     1  UNL1       -0.2223
      2 N          -0.4946   11.2493   14.4158 N.2     1  UNL1       -0.2787
      3 C           1.1896   11.9894   17.2456 C.3     1  UNL1       -0.0399
      4 H           1.9182   11.8148   16.4578 H       1  UNL1        0.0252
      5 H           0.9758   11.0444   17.7425 H       1  UNL1        0.0252
      6 H           1.6280   12.6814   17.9633 H       1  UNL1        0.0252
      7 C           0.1568   13.9902   16.1482 C.3     1  UNL1       -0.0399
      8 H           0.8233   13.9603   15.2917 H       1  UNL1        0.0252
      9 H           0.6455   14.5848   16.9161 H       1  UNL1        0.0252
     10 H          -0.7656   14.4855   15.8570 H       1  UNL1        0.0252
     11 C          -0.1156   12.5621   16.6543 C.3     1  UNL1        0.0746
     12 C          -0.6804   11.5691   15.6112 C.2     1  UNL1        0.0801
     13 C           0.3928   11.6648   13.3353 C.3     1  UNL1        0.0539
     14 C          -0.1558   12.9476   12.6977 C.3     1  UNL1       -0.0403
     15 H           0.4325   13.2064   11.8200 H       1  UNL1        0.0253
     16 H          -0.1280   13.7802   13.3938 H       1  UNL1        0.0253
     17 H          -1.1884   12.7924   12.3943 H       1  UNL1        0.0253
     18 C           1.8681   11.8277   13.7213 C.3     1  UNL1       -0.0403
     19 H           2.4667   11.9531   12.8208 H       1  UNL1        0.0253
     20 H           2.2161   10.9373   14.2421 H       1  UNL1        0.0253
     21 H           2.0322   12.6927   14.3564 H       1  UNL1        0.0253
     22 C           0.2936   10.5298   12.3008 C.3     1  UNL1       -0.0403
     23 H           0.8552   10.7772   11.4032 H       1  UNL1        0.0253
     24 H          -0.7463   10.3662   12.0307 H       1  UNL1        0.0253
     25 H           0.6894    9.6060   12.7162 H       1  UNL1        0.0253
     26 C          -1.4538   13.1072   18.8436 C.3     1  UNL1        0.0292
     27 C          -0.5601   12.5159   19.9577 C.3     1  UNL1       -0.0458
     28 H          -0.8812   12.8826   20.9309 H       1  UNL1        0.0248
     29 H           0.4802   12.7968   19.8195 H       1  UNL1        0.0248
     30 H          -0.6346   11.4301   19.9441 H       1  UNL1        0.0248
     31 C          -1.2628   14.6361   18.8303 C.3     1  UNL1       -0.0458
     32 H          -1.6827   15.0562   19.7423 H       1  UNL1        0.0248
     33 H          -1.7736   15.0790   17.9794 H       1  UNL1        0.0248
     34 H          -0.2118   14.9070   18.7951 H       1  UNL1        0.0248
     35 C          -2.9245   12.8271   19.2215 C.3     1  UNL1       -0.0458
     36 H          -3.1377   13.1708   20.2328 H       1  UNL1        0.0248
     37 H          -3.1183   11.7528   19.1506 H       1  UNL1        0.0248
     38 H          -3.5911   13.3406   18.5284 H       1  UNL1        0.0248
@<TRIPOS>BOND
     1    23    22    1
     2    15    14    1
     3    24    22    1
     4    22    25    1
     5    22    13    1
     6    17    14    1
     7    14    13    1
     8    14    16    1
     9    19    18    1
    10    13    18    1
    11    13     2    1
    12    18    20    1
    13    18    21    1
    14     2    12    2
    15     8     7    1
    16    12    11    1
    17    10     7    1
    18     7    11    1
    19     7     9    1
    20     4     3    1
    21    11     3    1
    22    11     1    1
    23     3     5    1
    24     3     6    1
    25     1    26    1
    26    33    31    1
    27    38    35    1
    28    34    31    1
    29    31    26    1
    30    31    32    1
    31    26    35    1
    32    26    27    1
    33    37    35    1
    34    35    36    1
    35    29    27    1
    36    30    27    1
    37    27    28    1
