@<TRIPOS>MOLECULE
1,3,7
 42 43 0 0 0
SMALL
GASTEIGER

@<TRIPOS>ATOM
      1 N           3.8679    1.5111    9.1981 N.pl3   1  UNL1        0.0000
      2 SI          5.4734    1.8061    9.8062 Si      1  UNL1        0.0000
      3 C           5.9676    3.0289    8.4396 C.2     1  UNL1        0.0000
      4 C           6.1753    4.4039    8.4433 C.2     1  UNL1        0.0000
      5 C           6.3244    4.8697    7.1072 C.2     1  UNL1        0.0000
      6 C           6.2019    3.7889    6.2431 C.2     1  UNL1        0.0000
      7 C           5.9352    2.6126    7.0267 C.3     1  UNL1        0.0000
      8 C           6.2746    5.3089    9.6298 C.3     1  UNL1        0.0000
      9 H           7.2406    5.8157    9.6353 H       1  UNL1        0.0000
     10 H           6.1764    4.7487   10.5526 H       1  UNL1        0.0000
     11 H           5.5050    6.0839    9.6037 H       1  UNL1        0.0000
     12 C           6.5947    6.2991    6.7537 C.3     1  UNL1        0.0000
     13 H           7.5918    6.5915    7.0870 H       1  UNL1        0.0000
     14 H           5.8804    6.9676    7.2384 H       1  UNL1        0.0000
     15 H           6.5396    6.4622    5.6797 H       1  UNL1        0.0000
     16 C           6.4282    3.7617    4.7592 C.3     1  UNL1        0.0000
     17 H           6.5158    4.7672    4.3540 H       1  UNL1        0.0000
     18 H           5.6068    3.2576    4.2454 H       1  UNL1        0.0000
     19 H           7.3526    3.2285    4.5268 H       1  UNL1        0.0000
     20 C           6.3858    1.2388    6.5479 C.3     1  UNL1        0.0000
     21 H           6.0491    1.0407    5.5266 H       1  UNL1        0.0000
     22 H           6.0280    0.4454    7.2047 H       1  UNL1        0.0000
     23 H           7.4802    1.2010    6.5442 H       1  UNL1        0.0000
     24 C           6.6299    0.2649    9.8608 C.3     1  UNL1        0.0000
     25 H           6.8316   -0.0313   10.8854 H       1  UNL1        0.0000
     26 H           7.5857    0.4631    9.3875 H       1  UNL1        0.0000
     27 H           6.1814   -0.5883    9.3599 H       1  UNL1        0.0000
     28 C           5.5027    2.4683   11.6068 C.3     1  UNL1        0.0000
     29 H           4.7947    3.2729   11.7742 H       1  UNL1        0.0000
     30 H           6.4913    2.8200   11.8813 H       1  UNL1        0.0000
     31 H           5.2421    1.6698   12.2930 H       1  UNL1        0.0000
     32 C           2.8720    0.7914    9.7870 C.ar    1  UNL1        0.0000
     33 C           3.0650   -0.0766   10.8764 C.ar    1  UNL1        0.0000
     34 H           4.0628   -0.1936   11.2687 H       1  UNL1        0.0000
     35 C           2.0146   -0.7793   11.4255 C.ar    1  UNL1        0.0000
     36 H           2.1988   -1.4420   12.2598 H       1  UNL1        0.0000
     37 C           0.7282   -0.6524   10.9222 C.ar    1  UNL1        0.0000
     38 H          -0.0892   -1.2071   11.3570 H       1  UNL1        0.0000
     39 C           0.5089    0.1968    9.8492 C.ar    1  UNL1        0.0000
     40 H          -0.4889    0.3084    9.4453 H       1  UNL1        0.0000
     41 C           1.5543    0.9048    9.2933 C.ar    1  UNL1        0.0000
     42 H           1.3724    1.5777    8.4432 H       1  UNL1        0.0000
@<TRIPOS>BOND
     1    18    16    1
     2    17    16    1
     3    19    16    1
     4    16     6    1
     5    21    20    1
     6    15    12    1
     7     6     7    1
     8     6     5    2
     9    23    20    1
    10    20     7    1
    11    20    22    1
    12    12    13    1
    13    12     5    1
    14    12    14    1
    15     7     3    1
    16     5     4    1
    17     3     4    2
    18     3     2    1
    19    42    41    1
    20     4     8    1
    21     1    32    1
    22     1     2    1
    23    41    32   ar
    24    41    39   ar
    25    27    24    1
    26    26    24    1
    27    40    39    1
    28    11     8    1
    29     8     9    1
    30     8    10    1
    31    32    33   ar
    32     2    24    1
    33     2    28    1
    34    39    37   ar
    35    24    25    1
    36    33    34    1
    37    33    35   ar
    38    37    38    1
    39    37    35   ar
    40    35    36    1
    41    28    29    1
    42    28    30    1
    43    28    31    1
