@<TRIPOS>MOLECULE
2,3,7
 42 43 0 0 0
SMALL
GASTEIGER

@<TRIPOS>ATOM
      1 SI          6.9265    6.9966    6.9475 Si      1  UNL1        0.0000
      2 N           5.4921    7.4788    6.0849 N.pl3   1  UNL1        0.0000
      3 C           6.6117    8.0707    8.4809 C.2     1  UNL1        0.0000
      4 C           6.3451    7.7642    9.8144 C.2     1  UNL1        0.0000
      5 C           6.0838    8.9603   10.5310 C.2     1  UNL1        0.0000
      6 C           6.1756   10.0370    9.6534 C.2     1  UNL1        0.0000
      7 C           6.4692    9.5338    8.3483 C.3     1  UNL1        0.0000
      8 C           6.3706    6.4070   10.4465 C.3     1  UNL1        0.0000
      9 H           5.4451    6.2009   10.9869 H       1  UNL1        0.0000
     10 H           7.1905    6.3400   11.1645 H       1  UNL1        0.0000
     11 H           6.5182    5.6398    9.6951 H       1  UNL1        0.0000
     12 C           5.7502    9.0400   11.9887 C.3     1  UNL1        0.0000
     13 H           6.0854    8.1457   12.5081 H       1  UNL1        0.0000
     14 H           4.6715    9.1363   12.1417 H       1  UNL1        0.0000
     15 H           6.2305    9.9017   12.4494 H       1  UNL1        0.0000
     16 C           6.0829   11.4927   10.0079 C.3     1  UNL1        0.0000
     17 H           7.0801   11.9158   10.1507 H       1  UNL1        0.0000
     18 H           5.5251   11.6327   10.9313 H       1  UNL1        0.0000
     19 H           5.5888   12.0609    9.2183 H       1  UNL1        0.0000
     20 C           7.2181   10.3680    7.3230 C.3     1  UNL1        0.0000
     21 H           6.7735   11.3597    7.2154 H       1  UNL1        0.0000
     22 H           7.2515    9.8803    6.3492 H       1  UNL1        0.0000
     23 H           8.2499   10.5085    7.6603 H       1  UNL1        0.0000
     24 C           8.6071    7.4428    6.1165 C.3     1  UNL1        0.0000
     25 H           9.1338    6.5464    5.8048 H       1  UNL1        0.0000
     26 H           9.2580    7.9805    6.7977 H       1  UNL1        0.0000
     27 H           8.4703    8.0606    5.2336 H       1  UNL1        0.0000
     28 C           7.0190    5.0999    7.2204 C.3     1  UNL1        0.0000
     29 H           6.1011    4.6891    7.6277 H       1  UNL1        0.0000
     30 H           7.8360    4.8332    7.8815 H       1  UNL1        0.0000
     31 H           7.1946    4.6051    6.2711 H       1  UNL1        0.0000
     32 C           5.0934    7.0355    4.8580 C.ar    1  UNL1        0.0000
     33 C           5.9082    6.2960    3.9825 C.ar    1  UNL1        0.0000
     34 H           6.9128    6.0552    4.2924 H       1  UNL1        0.0000
     35 C           5.4489    5.8929    2.7475 C.ar    1  UNL1        0.0000
     36 H           6.1036    5.3288    2.0976 H       1  UNL1        0.0000
     37 C           4.1638    6.2009    2.3264 C.ar    1  UNL1        0.0000
     38 H           3.8117    5.8812    1.3576 H       1  UNL1        0.0000
     39 C           3.3377    6.9242    3.1717 C.ar    1  UNL1        0.0000
     40 H           2.3303    7.1692    2.8628 H       1  UNL1        0.0000
     41 C           3.7911    7.3314    4.4082 C.ar    1  UNL1        0.0000
     42 H           3.1332    7.8976    5.0763 H       1  UNL1        0.0000
@<TRIPOS>BOND
     1    38    37    1
     2    36    35    1
     3    37    35   ar
     4    37    39   ar
     5    35    33   ar
     6    40    39    1
     7    39    41   ar
     8    33    34    1
     9    33    32   ar
    10    41    32   ar
    11    41    42    1
    12    32     2    1
    13    27    24    1
    14    25    24    1
    15     2     1    1
    16    24    26    1
    17    24     1    1
    18    31    28    1
    19    22    20    1
    20     1    28    1
    21     1     3    1
    22    21    20    1
    23    28    29    1
    24    28    30    1
    25    20    23    1
    26    20     7    1
    27     7     3    1
    28     7     6    1
    29     3     4    2
    30    19    16    1
    31     6    16    1
    32     6     5    2
    33    11     8    1
    34     4     8    1
    35     4     5    1
    36    16    17    1
    37    16    18    1
    38     8     9    1
    39     8    10    1
    40     5    12    1
    41    12    14    1
    42    12    15    1
    43    12    13    1
