@<TRIPOS>MOLECULE
2,3,7
 42 43 0 0 0
SMALL
GASTEIGER

@<TRIPOS>ATOM
      1 SI          3.0057    1.6477    3.8949 Si      1  UNL1        0.0000
      2 N           2.6207    3.2966    4.2845 N.pl3   1  UNL1        0.0000
      3 C           2.0131    1.5533    2.2827 C.2     1  UNL1        0.0000
      4 C           2.4320    1.4707    0.9549 C.2     1  UNL1        0.0000
      5 C           1.3065    1.5350    0.1008 C.2     1  UNL1        0.0000
      6 C           0.1606    1.6756    0.8798 C.2     1  UNL1        0.0000
      7 C           0.5492    1.7313    2.2573 C.3     1  UNL1        0.0000
      8 C           3.8420    1.2919    0.4786 C.3     1  UNL1        0.0000
      9 H           3.9707    1.6868   -0.5287 H       1  UNL1        0.0000
     10 H           4.1066    0.2326    0.4540 H       1  UNL1        0.0000
     11 H           4.5393    1.7930    1.1427 H       1  UNL1        0.0000
     12 C           1.3355    1.4564   -1.3956 C.3     1  UNL1        0.0000
     13 H           1.4829    2.4421   -1.8476 H       1  UNL1        0.0000
     14 H           0.3975    1.0549   -1.7733 H       1  UNL1        0.0000
     15 H           2.1418    0.8071   -1.7318 H       1  UNL1        0.0000
     16 C          -1.2489    1.6306    0.3650 C.3     1  UNL1        0.0000
     17 H          -1.5089    0.6137    0.0610 H       1  UNL1        0.0000
     18 H          -1.3760    2.2788   -0.5017 H       1  UNL1        0.0000
     19 H          -1.9582    1.9428    1.1286 H       1  UNL1        0.0000
     20 C          -0.3591    1.1987    3.3569 C.3     1  UNL1        0.0000
     21 H          -1.3720    1.5983    3.2735 H       1  UNL1        0.0000
     22 H           0.0276    1.4228    4.3498 H       1  UNL1        0.0000
     23 H          -0.4310    0.1101    3.2651 H       1  UNL1        0.0000
     24 C           2.4174    0.3551    5.2002 C.3     1  UNL1        0.0000
     25 H           3.2582   -0.0383    5.7627 H       1  UNL1        0.0000
     26 H           1.9178   -0.4865    4.7327 H       1  UNL1        0.0000
     27 H           1.7285    0.7925    5.9175 H       1  UNL1        0.0000
     28 C           4.8836    1.2892    3.7215 C.3     1  UNL1        0.0000
     29 H           5.4196    2.1080    3.2519 H       1  UNL1        0.0000
     30 H           5.0632    0.3915    3.1413 H       1  UNL1        0.0000
     31 H           5.3280    1.1386    4.6997 H       1  UNL1        0.0000
     32 C           3.1357    4.0677    5.2765 C.ar    1  UNL1        0.0000
     33 C           3.9545    3.5860    6.3146 C.ar    1  UNL1        0.0000
     34 H           4.1907    2.5336    6.3361 H       1  UNL1        0.0000
     35 C           4.4391    4.4269    7.2921 C.ar    1  UNL1        0.0000
     36 H           5.0640    4.0229    8.0772 H       1  UNL1        0.0000
     37 C           4.1370    5.7809    7.2864 C.ar    1  UNL1        0.0000
     38 H           4.5219    6.4333    8.0557 H       1  UNL1        0.0000
     39 C           3.3314    6.2827    6.2756 C.ar    1  UNL1        0.0000
     40 H           3.0856    7.3367    6.2556 H       1  UNL1        0.0000
     41 C           2.8405    5.4482    5.2943 C.ar    1  UNL1        0.0000
     42 H           2.2018    5.8443    4.4955 H       1  UNL1        0.0000
@<TRIPOS>BOND
     1    13    12    1
     2    14    12    1
     3    15    12    1
     4    12     5    1
     5     9     8    1
     6    18    16    1
     7    17    16    1
     8     5     6    2
     9     5     4    1
    10    16     6    1
    11    16    19    1
    12    10     8    1
    13     8     4    1
    14     8    11    1
    15     6     7    1
    16     4     3    2
    17     7     3    1
    18     7    20    1
    19     3     1    1
    20    30    28    1
    21    29    28    1
    22    23    20    1
    23    21    20    1
    24    20    22    1
    25    28     1    1
    26    28    31    1
    27     1     2    1
    28     1    24    1
    29     2    32    1
    30    42    41    1
    31    26    24    1
    32    24    25    1
    33    24    27    1
    34    32    41   ar
    35    32    33   ar
    36    41    39   ar
    37    40    39    1
    38    39    37   ar
    39    33    34    1
    40    33    35   ar
    41    37    35   ar
    42    37    38    1
    43    35    36    1
