@<TRIPOS>MOLECULE
1,2,3
 28 30 0 0 0
SMALL
GASTEIGER

@<TRIPOS>ATOM
      1 C           0.5611   14.5354   11.6627 C.3     1  UNL1        0.0301
      2 N          -1.7445   13.9697   13.1962 N.pl3   1  UNL1       -0.2451
      3 C           1.0088   13.1835   11.8302 C.2     1  UNL1       -0.0718
      4 H           0.9393   12.6242   12.7590 H       1  UNL1        0.0581
      5 C           1.7475   12.7987   10.7179 C.2     1  UNL1       -0.0574
      6 H           2.2536   11.8568   10.5847 H       1  UNL1        0.0621
      7 C          -1.8368   14.6075   15.9073 C.2     1  UNL1       -0.0623
      8 H          -1.8587   14.8428   16.9610 H       1  UNL1        0.0616
      9 C          -0.8519   15.1241   15.0880 C.2     1  UNL1       -0.0567
     10 H          -0.0943   15.7831   15.4842 H       1  UNL1        0.0595
     11 C          -0.8402   14.7979   13.7333 C.3     1  UNL1        0.0988
     12 C           1.1067   14.9932   10.4207 C.ar    1  UNL1       -0.0291
     13 C          -2.7166   13.5121   13.9859 C.2     1  UNL1        0.0125
     14 H          -3.4619   12.8970   13.5067 H       1  UNL1        0.0797
     15 C           1.8268   13.8992    9.8316 C.ar    1  UNL1       -0.0213
     16 C          -2.8057   13.7972   15.3358 C.2     1  UNL1       -0.0466
     17 H          -3.6121   13.3907   15.9246 H       1  UNL1        0.0630
     18 C           1.0945   16.2361    9.7788 C.ar    1  UNL1       -0.0571
     19 H           0.5799   17.0800   10.2219 H       1  UNL1        0.0621
     20 C           2.4776   14.0723    8.6081 C.ar    1  UNL1       -0.0543
     21 H           3.0168   13.2494    8.1573 H       1  UNL1        0.0624
     22 C           0.1646   15.4250   12.8148 C.3     1  UNL1       -0.0096
     23 H          -0.2785   16.3504   12.4272 H       1  UNL1        0.0302
     24 H           1.0529   15.7104   13.3933 H       1  UNL1        0.0302
     25 C           2.4372   15.3032    7.9960 C.ar    1  UNL1       -0.0612
     26 H           2.9473   15.4544    7.0549 H       1  UNL1        0.0618
     27 C           1.7569   16.3785    8.5810 C.ar    1  UNL1       -0.0614
     28 H           1.7628   17.3369    8.0807 H       1  UNL1        0.0618
@<TRIPOS>BOND
     1    26    25    1
     2    25    27   ar
     3    25    20   ar
     4    28    27    1
     5    21    20    1
     6    27    18   ar
     7    20    15   ar
     8    18    19    1
     9    18    12   ar
    10    15    12   ar
    11    15     5    1
    12    12     1    1
    13     6     5    1
    14     5     3    2
    15     1     3    1
    16     1    22    1
    17     3     4    1
    18    23    22    1
    19    22    24    1
    20    22    11    1
    21     2    11    1
    22     2    13    1
    23    14    13    1
    24    11     9    1
    25    13    16    2
    26     9    10    1
    27     9     7    2
    28    16     7    1
    29    16    17    1
    30     7     8    1
