@<TRIPOS>MOLECULE
1,5,21
 28 30 0 0 0
SMALL
GASTEIGER

@<TRIPOS>ATOM
      1 N          -0.7691   13.2299    8.6322 N.pl3   1  UNL1       -0.2451
      2 C          -0.3770   12.0288    8.1941 C.3     1  UNL1        0.0988
      3 C          -0.6924   14.2571    7.7832 C.2     1  UNL1        0.0125
      4 H          -1.0272   15.2139    8.1587 H       1  UNL1        0.0797
      5 C          -2.7382   11.5089   10.2575 C.2     1  UNL1       -0.0718
      6 H          -3.2797   11.7087    9.3383 H       1  UNL1        0.0581
      7 C          -2.4114   10.4233   13.7368 C.ar    1  UNL1       -0.0543
      8 H          -3.3338   10.5192   14.2950 H       1  UNL1        0.0624
      9 C          -0.0183   10.0765   12.2819 C.ar    1  UNL1       -0.0571
     10 H           0.8989    9.9084   11.7321 H       1  UNL1        0.0621
     11 C          -0.2132   14.1520    6.4925 C.2     1  UNL1       -0.0466
     12 H          -0.1739   15.0213    5.8568 H       1  UNL1        0.0630
     13 C          -3.3262   11.3612   11.5179 C.2     1  UNL1       -0.0574
     14 H          -4.3721   11.4964   11.7428 H       1  UNL1        0.0621
     15 C           0.2202   12.9124    6.0457 C.2     1  UNL1       -0.0623
     16 H           0.6149   12.7882    5.0483 H       1  UNL1        0.0616
     17 C          -2.3516   10.8330   12.3978 C.ar    1  UNL1       -0.0213
     18 C          -1.1254   10.6753   11.6596 C.ar    1  UNL1       -0.0291
     19 C          -1.3004    9.8677   14.3218 C.ar    1  UNL1       -0.0612
     20 H          -1.3390    9.5412   15.3517 H       1  UNL1        0.0618
     21 C          -1.3665   11.1208   10.3247 C.3     1  UNL1        0.0301
     22 C          -0.1132    9.6904   13.5965 C.ar    1  UNL1       -0.0614
     23 H           0.7336    9.2273   14.0835 H       1  UNL1        0.0618
     24 C           0.1274   11.8398    6.9084 C.2     1  UNL1       -0.0567
     25 H           0.4425   10.8536    6.6015 H       1  UNL1        0.0595
     26 C          -0.4965   10.8551    9.1253 C.3     1  UNL1       -0.0096
     27 H          -0.8900   10.0039    8.5530 H       1  UNL1        0.0302
     28 H           0.5085   10.5745    9.4563 H       1  UNL1        0.0302
@<TRIPOS>BOND
     1    16    15    1
     2    12    11    1
     3    15    11    1
     4    15    24    2
     5    11     3    2
     6    25    24    1
     7    24     2    1
     8     3     4    1
     9     3     1    1
    10     2     1    1
    11     2    26    1
    12    27    26    1
    13    26    28    1
    14    26    21    1
    15     6     5    1
    16     5    21    1
    17     5    13    2
    18    21    18    1
    19    13    14    1
    20    13    17    1
    21    18     9   ar
    22    18    17   ar
    23    10     9    1
    24     9    22   ar
    25    17     7   ar
    26    22    23    1
    27    22    19   ar
    28     7     8    1
    29     7    19   ar
    30    19    20    1
