@<TRIPOS>MOLECULE
2,44,48
 64 65 0 0 0
SMALL
GASTEIGER

@<TRIPOS>ATOM
      1 SI         -3.1635    9.4887    8.6558 Si      1  UNL1        0.0000
      2 N          -3.0669   10.8568    7.5782 N.3     1  UNL1        0.0000
      3 N          -4.7920   12.5102    7.4169 N.pl3   1  UNL1        0.0000
      4 N          -4.1366   11.5162    5.5680 N.pl3   1  UNL1        0.0000
      5 C          -3.9530   11.5466    6.9261 C.3     1  UNL1        0.0000
      6 C          -5.0711   12.4808    5.2188 C.2     1  UNL1        0.0000
      7 C          -5.4667   13.1015    6.3578 C.2     1  UNL1        0.0000
      8 C          -3.4122   10.5771    4.7326 C.3     1  UNL1        0.0000
      9 H          -2.7076   10.0983    5.4304 H       1  UNL1        0.0000
     10 C          -2.6080   11.2693    3.6336 C.3     1  UNL1        0.0000
     11 H          -3.2514   11.6618    2.8519 H       1  UNL1        0.0000
     12 H          -1.9312   10.5482    3.1827 H       1  UNL1        0.0000
     13 H          -2.0177   12.0823    4.0520 H       1  UNL1        0.0000
     14 C          -4.3309    9.4919    4.1701 C.3     1  UNL1        0.0000
     15 H          -4.9349    9.0631    4.9650 H       1  UNL1        0.0000
     16 H          -3.7263    8.7022    3.7325 H       1  UNL1        0.0000
     17 H          -4.9923    9.8785    3.3990 H       1  UNL1        0.0000
     18 C          -5.5006   12.7731    3.8234 C.3     1  UNL1        0.0000
     19 H          -5.6476   11.8606    3.2536 H       1  UNL1        0.0000
     20 H          -4.7606   13.3883    3.3110 H       1  UNL1        0.0000
     21 H          -6.4421   13.3152    3.8367 H       1  UNL1        0.0000
     22 C          -6.4595   14.2005    6.5077 C.3     1  UNL1        0.0000
     23 H          -6.6756   14.6303    5.5341 H       1  UNL1        0.0000
     24 H          -6.0769   14.9929    7.1454 H       1  UNL1        0.0000
     25 H          -7.3921   13.8319    6.9346 H       1  UNL1        0.0000
     26 C          -4.7616   12.8871    8.8160 C.3     1  UNL1        0.0000
     27 H          -4.2233   12.0634    9.2927 H       1  UNL1        0.0000
     28 C          -6.1523   12.9712    9.4403 C.3     1  UNL1        0.0000
     29 H          -6.6500   13.9050    9.1976 H       1  UNL1        0.0000
     30 H          -6.0610   12.9084   10.5215 H       1  UNL1        0.0000
     31 H          -6.7693   12.1424    9.1019 H       1  UNL1        0.0000
     32 C          -3.9514   14.1674    9.0253 C.3     1  UNL1        0.0000
     33 H          -2.9598   14.0526    8.5908 H       1  UNL1        0.0000
     34 H          -3.8471   14.3613   10.0898 H       1  UNL1        0.0000
     35 H          -4.4334   15.0267    8.5661 H       1  UNL1        0.0000
     36 C          -3.8504    8.0193    7.6343 C.3     1  UNL1        0.0000
     37 H          -4.8399    8.2616    7.2565 H       1  UNL1        0.0000
     38 H          -3.9481    7.1277    8.2422 H       1  UNL1        0.0000
     39 H          -3.2192    7.7775    6.7868 H       1  UNL1        0.0000
     40 C          -4.4296    9.6278   10.0977 C.3     1  UNL1        0.0000
     41 H          -4.1495   10.3656   10.8418 H       1  UNL1        0.0000
     42 H          -4.5059    8.6738   10.6098 H       1  UNL1        0.0000
     43 H          -5.4211    9.8789    9.7316 H       1  UNL1        0.0000
     44 C          -1.3889    9.3681    9.2479 C.2     1  UNL1        0.0000
     45 C          -0.4653    8.3052    9.1300 C.2     1  UNL1        0.0000
     46 C           0.7380    8.6653    9.7582 C.2     1  UNL1        0.0000
     47 C           0.5954    9.9615   10.2865 C.2     1  UNL1        0.0000
     48 C          -0.7038   10.4242    9.9767 C.3     1  UNL1        0.0000
     49 C          -0.7219    6.9865    8.4667 C.3     1  UNL1        0.0000
     50 H          -0.7102    7.0747    7.3781 H       1  UNL1        0.0000
     51 H          -1.6921    6.5907    8.7600 H       1  UNL1        0.0000
     52 H           0.0409    6.2660    8.7527 H       1  UNL1        0.0000
     53 C           1.9432    7.7819    9.8787 C.3     1  UNL1        0.0000
     54 H           1.7130    6.8985   10.4774 H       1  UNL1        0.0000
     55 H           2.7641    8.3050   10.3631 H       1  UNL1        0.0000
     56 H           2.2868    7.4453    8.9003 H       1  UNL1        0.0000
     57 C           1.5912   10.7172   11.1190 C.3     1  UNL1        0.0000
     58 H           1.5974   11.7771   10.8582 H       1  UNL1        0.0000
     59 H           2.5987   10.3317   10.9757 H       1  UNL1        0.0000
     60 H           1.3494   10.6339   12.1813 H       1  UNL1        0.0000
     61 C          -1.3804   11.5658   10.6995 C.3     1  UNL1        0.0000
     62 H          -1.7646   11.2139   11.6618 H       1  UNL1        0.0000
     63 H          -2.2183   11.9670   10.1297 H       1  UNL1        0.0000
     64 H          -0.6788   12.3746   10.9083 H       1  UNL1        0.0000
@<TRIPOS>BOND
     1    11    10    1
     2    12    10    1
     3    19    18    1
     4    20    18    1
     5    17    14    1
     6    10    13    1
     7    10     8    1
     8    16    14    1
     9    18    21    1
    10    18     6    1
    11    14     8    1
    12    14    15    1
    13     8     9    1
    14     8     4    1
    15     6     4    1
    16     6     7    2
    17    23    22    1
    18     4     5    1
    19     7    22    1
    20     7     3    1
    21    22    25    1
    22    22    24    1
    23    39    36    1
    24     5     3    1
    25     5     2    1
    26    37    36    1
    27    50    49    1
    28     3    26    1
    29     2     1    1
    30    36    38    1
    31    36     1    1
    32    49    52    1
    33    49    51    1
    34    49    45    1
    35    35    32    1
    36    33    32    1
    37     1    44    1
    38     1    40    1
    39    26    32    1
    40    26    27    1
    41    26    28    1
    42    56    53    1
    43    32    34    1
    44    31    28    1
    45    45    44    2
    46    45    46    1
    47    29    28    1
    48    44    48    1
    49    28    30    1
    50    43    40    1
    51    46    53    1
    52    46    47    2
    53    53    55    1
    54    53    54    1
    55    48    47    1
    56    48    61    1
    57    40    42    1
    58    40    41    1
    59    63    61    1
    60    47    57    1
    61    61    64    1
    62    61    62    1
    63    58    57    1
    64    59    57    1
    65    57    60    1
