@<TRIPOS>MOLECULE
1,2
 22 21 0 0 0
SMALL
GASTEIGER

@<TRIPOS>ATOM
      1 SI          2.0789    2.6168    1.1367 Si      1  UNL1        0.0000
      2 CL          1.5388    3.5189    3.0842 Cl      1  UNL1        0.0000
      3 C           0.8790    1.0839    0.9425 C.3     1  UNL1        0.0000
      4 C           1.4629    3.9913   -0.1098 C.3     1  UNL1        0.0000
      5 C           1.6417   -0.1049    0.3526 C.3     1  UNL1        0.0000
      6 C           0.2190    0.6729    2.2578 C.3     1  UNL1        0.0000
      7 C           2.4096    5.1909   -0.1454 C.3     1  UNL1        0.0000
      8 C           0.0421    4.4639    0.2109 C.3     1  UNL1        0.0000
      9 H           0.0830    1.3423    0.2365 H       1  UNL1        0.0000
     10 H           1.4508    3.5475   -1.1115 H       1  UNL1        0.0000
     11 H           0.9723   -0.9516    0.2116 H       1  UNL1        0.0000
     12 H           2.0763    0.1509   -0.6107 H       1  UNL1        0.0000
     13 H           2.4428   -0.4084    1.0231 H       1  UNL1        0.0000
     14 H           2.0568    5.9294   -0.8630 H       1  UNL1        0.0000
     15 H           2.4577    5.6590    0.8348 H       1  UNL1        0.0000
     16 H           3.4144    4.8849   -0.4278 H       1  UNL1        0.0000
     17 H          -0.4132   -0.1999    2.1032 H       1  UNL1        0.0000
     18 H           0.9748    0.4244    3.0003 H       1  UNL1        0.0000
     19 H          -0.3902    1.4813    2.6505 H       1  UNL1        0.0000
     20 H          -0.2777    5.2018   -0.5224 H       1  UNL1        0.0000
     21 H          -0.6611    3.6366    0.1943 H       1  UNL1        0.0000
     22 H           0.0131    4.9154    1.1975 H       1  UNL1        0.0000
@<TRIPOS>BOND
     1    10     4    1
     2    14     7    1
     3    12     5    1
     4    20     8    1
     5    16     7    1
     6     7     4    1
     7     7    15    1
     8     4     8    1
     9     4     1    1
    10    21     8    1
    11     8    22    1
    12    11     5    1
    13     9     3    1
    14     5     3    1
    15     5    13    1
    16     3     1    1
    17     3     6    1
    18     1     2    1
    19    17     6    1
    20     6    19    1
    21     6    18    1
