@<TRIPOS>MOLECULE
1,2
 10 9 0 0 0
SMALL
GASTEIGER

@<TRIPOS>ATOM
      1 SI          1.1990    3.3053    4.8464 Si      1  UNL1        0.0000
      2 CL          3.3898    3.3049    4.2979 Cl      1  UNL1        0.0000
      3 C           1.1546    4.8156    6.0446 C.3     1  UNL1        0.0000
      4 H           1.1340    5.7687    5.5228 H       1  UNL1        0.0000
      5 H           2.0140    4.8176    6.7124 H       1  UNL1        0.0000
      6 H           0.2600    4.7673    6.6585 H       1  UNL1        0.0000
      7 C           1.1548    1.7957    6.0456 C.3     1  UNL1        0.0000
      8 H           1.1368    0.8422    5.5244 H       1  UNL1        0.0000
      9 H           2.0128    1.7956    6.7150 H       1  UNL1        0.0000
     10 H           0.2590    1.8429    6.6576 H       1  UNL1        0.0000
@<TRIPOS>BOND
     1     2     1    1
     2     1     3    1
     3     1     7    1
     4     4     3    1
     5     8     7    1
     6     3     6    1
     7     3     5    1
     8     7    10    1
     9     7     9    1
