@<TRIPOS>MOLECULE
1,2
 10 9 0 0 0
SMALL
GASTEIGER

@<TRIPOS>ATOM
      1 SI         -1.2937    6.1281    8.9170 Si      1  UNL1        0.0000
      2 CL         -0.7099    6.5838   11.1026 Cl      1  UNL1        0.0000
      3 C          -1.7287    7.9230    8.3423 C.3     1  UNL1        0.0000
      4 C          -3.0091    5.3291    9.2764 C.3     1  UNL1        0.0000
      5 H          -2.2846    8.4531    9.1132 H       1  UNL1        0.0000
      6 H          -0.8515    8.5165    8.1008 H       1  UNL1        0.0000
      7 H          -2.3477    7.8884    7.4505 H       1  UNL1        0.0000
      8 H          -3.6468    5.9962    9.8529 H       1  UNL1        0.0000
      9 H          -3.5306    5.0876    8.3554 H       1  UNL1        0.0000
     10 H          -2.8876    4.4081    9.8416 H       1  UNL1        0.0000
@<TRIPOS>BOND
     1     7     3    1
     2     6     3    1
     3     3     1    1
     4     3     5    1
     5     9     4    1
     6     1     4    1
     7     1     2    1
     8     4    10    1
     9     4     8    1
