@<TRIPOS>MOLECULE
1,3
 77 78 0 0 0
SMALL
GASTEIGER

@<TRIPOS>ATOM
      1 P          13.8196    2.5262    1.2483 P.3     1  UNL1        0.0000
      2 SI         12.3371    4.1149    2.0734 Si      1  UNL1        0.0000
      3 C          11.1657    0.7895   -0.6495 C.3     1  UNL1        0.0000
      4 H          10.8061   -0.2174   -0.9285 H       1  UNL1        0.0000
      5 H          10.3940    1.4848   -1.0269 H       1  UNL1        0.0000
      6 C          13.5972    0.1273   -1.0785 C.3     1  UNL1        0.0000
      7 H          14.0093    0.4037   -0.1071 H       1  UNL1        0.0000
      8 H          14.3990    0.1943   -1.8131 H       1  UNL1        0.0000
      9 H          13.2601   -0.9099   -1.0294 H       1  UNL1        0.0000
     10 C          12.1184    0.6197   -2.9592 C.3     1  UNL1        0.0000
     11 H          12.0629   -0.4672   -3.0069 H       1  UNL1        0.0000
     12 H          12.8962    0.9508   -3.6445 H       1  UNL1        0.0000
     13 H          11.1604    1.0061   -3.2992 H       1  UNL1        0.0000
     14 C          12.4329    1.0434   -1.5035 C.3     1  UNL1        0.0000
     15 C          13.7938    3.0485   -0.5174 C.ar    1  UNL1        0.0000
     16 C          12.8896    2.5111   -1.4633 C.ar    1  UNL1        0.0000
     17 C          12.4705    3.3367   -2.5012 C.ar    1  UNL1        0.0000
     18 H          11.6963    2.9822   -3.1567 H       1  UNL1        0.0000
     19 C          12.9910    4.6019   -2.7090 C.ar    1  UNL1        0.0000
     20 C          14.1176    4.9365   -1.9701 C.ar    1  UNL1        0.0000
     21 H          14.6415    5.8417   -2.2226 H       1  UNL1        0.0000
     22 C          14.5627    4.1723   -0.9042 C.ar    1  UNL1        0.0000
     23 C          12.4469    5.5710   -3.7457 C.3     1  UNL1        0.0000
     24 C          11.1532    5.0710   -4.3950 C.3     1  UNL1        0.0000
     25 H          10.7666    5.8318   -5.0708 H       1  UNL1        0.0000
     26 H          10.3948    4.8701   -3.6416 H       1  UNL1        0.0000
     27 H          11.3275    4.1676   -4.9750 H       1  UNL1        0.0000
     28 C          13.4931    5.7772   -4.8498 C.3     1  UNL1        0.0000
     29 H          13.7320    4.8268   -5.3230 H       1  UNL1        0.0000
     30 H          14.4113    6.1967   -4.4476 H       1  UNL1        0.0000
     31 H          13.1111    6.4562   -5.6099 H       1  UNL1        0.0000
     32 C          12.1446    6.9111   -3.0602 C.3     1  UNL1        0.0000
     33 H          13.0415    7.3446   -2.6267 H       1  UNL1        0.0000
     34 H          11.4175    6.7679   -2.2637 H       1  UNL1        0.0000
     35 H          11.7375    7.6198   -3.7790 H       1  UNL1        0.0000
     36 C          15.9107    4.5164   -0.2651 C.3     1  UNL1        0.0000
     37 C          16.7443    5.4527   -1.1545 C.3     1  UNL1        0.0000
     38 H          17.7533    5.5174   -0.7510 H       1  UNL1        0.0000
     39 H          16.3371    6.4611   -1.1731 H       1  UNL1        0.0000
     40 H          16.8119    5.0738   -2.1720 H       1  UNL1        0.0000
     41 C          15.7485    5.1981    1.0944 C.3     1  UNL1        0.0000
     42 H          15.2963    4.5127    1.8049 H       1  UNL1        0.0000
     43 H          15.1148    6.0772    1.0036 H       1  UNL1        0.0000
     44 H          16.7203    5.5073    1.4756 H       1  UNL1        0.0000
     45 C          16.7255    3.2261   -0.1057 C.3     1  UNL1        0.0000
     46 H          16.8694    2.7511   -1.0742 H       1  UNL1        0.0000
     47 H          16.2119    2.5277    0.5511 H       1  UNL1        0.0000
     48 H          17.7006    3.4472    0.3240 H       1  UNL1        0.0000
     49 C          11.0333    3.0300    2.9390 C.3     1  UNL1        0.0000
     50 C          11.3094    2.4939    4.2583 C.2     1  UNL1        0.0000
     51 C          10.1120    2.3280    4.9291 C.2     1  UNL1        0.0000
     52 C           9.0514    2.7575    4.0782 C.2     1  UNL1        0.0000
     53 C           9.5959    3.1858    2.8810 C.2     1  UNL1        0.0000
     54 C          12.6767    2.2742    4.8371 C.3     1  UNL1        0.0000
     55 H          12.7024    1.3717    5.4505 H       1  UNL1        0.0000
     56 H          12.9560    3.1101    5.4827 H       1  UNL1        0.0000
     57 H          13.4294    2.1912    4.0485 H       1  UNL1        0.0000
     58 C           9.9572    1.8019    6.3235 C.3     1  UNL1        0.0000
     59 H          10.5306    0.8822    6.4652 H       1  UNL1        0.0000
     60 H           8.9137    1.5920    6.5479 H       1  UNL1        0.0000
     61 H          10.3200    2.5286    7.0531 H       1  UNL1        0.0000
     62 C           7.6047    2.7582    4.4682 C.3     1  UNL1        0.0000
     63 H           7.4318    3.4638    5.2824 H       1  UNL1        0.0000
     64 H           7.2784    1.7726    4.8085 H       1  UNL1        0.0000
     65 H           6.9751    3.0551    3.6326 H       1  UNL1        0.0000
     66 C           8.8454    3.7332    1.7010 C.3     1  UNL1        0.0000
     67 H           9.3679    3.5091    0.7679 H       1  UNL1        0.0000
     68 H           8.7352    4.8171    1.7753 H       1  UNL1        0.0000
     69 H           7.8430    3.3077    1.6406 H       1  UNL1        0.0000
     70 C          13.1143    5.3218    3.3568 C.3     1  UNL1        0.0000
     71 H          13.4403    6.2448    2.8912 H       1  UNL1        0.0000
     72 H          13.9656    4.8872    3.8682 H       1  UNL1        0.0000
     73 H          12.3691    5.5702    4.1049 H       1  UNL1        0.0000
     74 C          11.6679    5.2102    0.6523 C.3     1  UNL1        0.0000
     75 H          11.2815    4.6136   -0.1669 H       1  UNL1        0.0000
     76 H          12.4726    5.8190    0.2566 H       1  UNL1        0.0000
     77 H          10.8854    5.8714    1.0046 H       1  UNL1        0.0000
@<TRIPOS>BOND
     1    31    28    1
     2    29    28    1
     3    25    24    1
     4    27    24    1
     5    28    30    1
     6    28    23    1
     7    24    23    1
     8    24    26    1
     9    35    32    1
    10    23    32    1
    11    23    19    1
    12    12    10    1
    13    13    10    1
    14    18    17    1
    15    32    33    1
    16    32    34    1
    17    11    10    1
    18    10    14    1
    19    19    17   ar
    20    19    20   ar
    21    17    16   ar
    22    21    20    1
    23    40    37    1
    24    20    22   ar
    25     8     6    1
    26    14    16    1
    27    14     6    1
    28    14     3    1
    29    16    15   ar
    30    39    37    1
    31    37    38    1
    32    37    36    1
    33     6     9    1
    34     6     7    1
    35    46    45    1
    36     5     3    1
    37     4     3    1
    38    22    15   ar
    39    22    36    1
    40    15     1    1
    41    36    45    1
    42    36    41    1
    43    75    74    1
    44    45    48    1
    45    45    47    1
    46    76    74    1
    47    74    77    1
    48    74     2    1
    49    67    66    1
    50    43    41    1
    51    41    44    1
    52    41    42    1
    53     1     2    1
    54    69    66    1
    55    66    68    1
    56    66    53    1
    57     2    49    1
    58     2    70    1
    59    53    49    1
    60    53    52    2
    61    71    70    1
    62    49    50    1
    63    70    72    1
    64    70    73    1
    65    65    62    1
    66    57    54    1
    67    52    62    1
    68    52    51    1
    69    50    54    1
    70    50    51    2
    71    62    64    1
    72    62    63    1
    73    54    55    1
    74    54    56    1
    75    51    58    1
    76    58    59    1
    77    58    60    1
    78    58    61    1
