@<TRIPOS>MOLECULE
1,5,6
 33 32 0 0 0
SMALL
GASTEIGER

@<TRIPOS>ATOM
      1 P          14.9903    1.6622   51.3065 P.3     1  UNL1        0.0000
      2 SI         17.9440    1.0874   51.8210 Si      1  UNL1        0.0000
      3 SI         15.8648   -1.2148   50.7117 Si      1  UNL1        0.0000
      4 O          14.3811    1.8680   55.1404 O.2     1  UNL1        0.0000
      5 C          14.3798    1.9440   53.9580 C.2     1  UNL1        0.0000
      6 C          14.8371    2.5755   52.8273 C.3     1  UNL1        0.0000
      7 C          16.1770    0.3317   51.8015 C.3     1  UNL1        0.0000
      8 C          18.0803    2.3065   53.2831 C.3     1  UNL1        0.0000
      9 C          18.2937    2.0335   50.2014 C.3     1  UNL1        0.0000
     10 C          19.2408   -0.2882   52.0804 C.3     1  UNL1        0.0000
     11 C          16.2989   -2.7740   51.7178 C.3     1  UNL1        0.0000
     12 C          14.0244   -1.2341   50.2227 C.3     1  UNL1        0.0000
     13 C          16.8646   -1.1606   49.0875 C.3     1  UNL1        0.0000
     14 H          14.6432    3.6414   52.7673 H       1  UNL1        0.0000
     15 H          15.9537    0.0644   52.8357 H       1  UNL1        0.0000
     16 H          17.4993    3.2052   53.1035 H       1  UNL1        0.0000
     17 H          17.7120    1.8616   54.2023 H       1  UNL1        0.0000
     18 H          19.1100    2.6063   53.4518 H       1  UNL1        0.0000
     19 H          18.4371    1.3620   49.3628 H       1  UNL1        0.0000
     20 H          17.4687    2.6964   49.9573 H       1  UNL1        0.0000
     21 H          19.1895    2.6395   50.2936 H       1  UNL1        0.0000
     22 H          19.2290   -1.0141   51.2753 H       1  UNL1        0.0000
     23 H          20.2395    0.1331   52.1291 H       1  UNL1        0.0000
     24 H          19.0658   -0.8219   53.0087 H       1  UNL1        0.0000
     25 H          16.1295   -3.6751   51.1373 H       1  UNL1        0.0000
     26 H          17.3380   -2.7729   52.0291 H       1  UNL1        0.0000
     27 H          15.6874   -2.8384   52.6118 H       1  UNL1        0.0000
     28 H          13.6999   -2.2084   49.8725 H       1  UNL1        0.0000
     29 H          13.4104   -0.9491   51.0716 H       1  UNL1        0.0000
     30 H          13.8360   -0.5147   49.4330 H       1  UNL1        0.0000
     31 H          16.5950   -1.9965   48.4502 H       1  UNL1        0.0000
     32 H          16.6641   -0.2486   48.5355 H       1  UNL1        0.0000
     33 H          17.9327   -1.2149   49.2634 H       1  UNL1        0.0000
@<TRIPOS>BOND
     1    31    13    1
     2    32    13    1
     3    13    33    1
     4    13     3    1
     5    19     9    1
     6    30    12    1
     7    28    12    1
     8    20     9    1
     9     9    21    1
    10     9     2    1
    11    12     3    1
    12    12    29    1
    13     3    11    1
    14     3     7    1
    15    25    11    1
    16    22    10    1
    17     1     7    1
    18     1     6    1
    19    11    26    1
    20    11    27    1
    21     7     2    1
    22     7    15    1
    23     2    10    1
    24     2     8    1
    25    10    23    1
    26    10    24    1
    27    14     6    1
    28     6     5    1
    29    16     8    1
    30     8    18    1
    31     8    17    1
    32     5     4    2
