@<TRIPOS>MOLECULE
1,5,7
 33 32 0 0 0
SMALL
GASTEIGER

@<TRIPOS>ATOM
      1 P           0.5235   11.6720    5.5838 P.3     1  UNL1        0.0000
      2 SI          2.4976    9.9711    6.8829 Si      1  UNL1        0.0000
      3 SI          2.9750   13.2275    6.6857 Si      1  UNL1        0.0000
      4 O          -2.8135   13.2729    5.0574 O.2     1  UNL1        0.0000
      5 C          -0.4940   13.0912    5.9002 C.3     1  UNL1        0.0000
      6 C           1.7777   11.7516    6.9393 C.3     1  UNL1        0.0000
      7 C          -1.8051   12.9034    5.5564 C.2     1  UNL1        0.0000
      8 C           1.0408    8.7634    6.6347 C.3     1  UNL1        0.0000
      9 C           3.6357    9.8157    5.3620 C.3     1  UNL1        0.0000
     10 C           3.4605    9.5284    8.4710 C.3     1  UNL1        0.0000
     11 C           4.6692   12.9088    7.5038 C.3     1  UNL1        0.0000
     12 C           2.2792   14.8045    7.5219 C.3     1  UNL1        0.0000
     13 C           3.1968   13.5557    4.8239 C.3     1  UNL1        0.0000
     14 H          -0.1679   13.9449    6.4729 H       1  UNL1        0.0000
     15 H           1.2333   11.8945    7.8716 H       1  UNL1        0.0000
     16 H           0.9506    8.4903    5.5883 H       1  UNL1        0.0000
     17 H           1.1565    7.8452    7.2013 H       1  UNL1        0.0000
     18 H           0.1006    9.2331    6.9153 H       1  UNL1        0.0000
     19 H           3.1153   10.1417    4.4666 H       1  UNL1        0.0000
     20 H           4.5370   10.4108    5.4584 H       1  UNL1        0.0000
     21 H           3.9388    8.7847    5.2107 H       1  UNL1        0.0000
     22 H           3.9113    8.5472    8.3656 H       1  UNL1        0.0000
     23 H           4.2591   10.2342    8.6667 H       1  UNL1        0.0000
     24 H           2.8231    9.4994    9.3478 H       1  UNL1        0.0000
     25 H           4.5761   12.7796    8.5771 H       1  UNL1        0.0000
     26 H           5.1552   12.0263    7.1047 H       1  UNL1        0.0000
     27 H           5.3312   13.7519    7.3351 H       1  UNL1        0.0000
     28 H           1.8317   14.5915    8.4879 H       1  UNL1        0.0000
     29 H           3.0758   15.5232    7.6882 H       1  UNL1        0.0000
     30 H           1.5315   15.2970    6.9082 H       1  UNL1        0.0000
     31 H           3.7710   14.4592    4.6429 H       1  UNL1        0.0000
     32 H           3.7108   12.7348    4.3360 H       1  UNL1        0.0000
     33 H           2.2315   13.6716    4.3378 H       1  UNL1        0.0000
@<TRIPOS>BOND
     1    32    13    1
     2    33    13    1
     3    19     9    1
     4    31    13    1
     5    13     3    1
     6     4     7    2
     7    21     9    1
     8     9    20    1
     9     9     2    1
    10     7     5    1
    11     1     5    1
    12     1     6    1
    13    16     8    1
    14     5    14    1
    15     8     2    1
    16     8    18    1
    17     8    17    1
    18     3     6    1
    19     3    11    1
    20     3    12    1
    21     2     6    1
    22     2    10    1
    23    30    12    1
    24     6    15    1
    25    26    11    1
    26    27    11    1
    27    11    25    1
    28    12    29    1
    29    12    28    1
    30    22    10    1
    31    10    23    1
    32    10    24    1
