@<TRIPOS>MOLECULE
19,21,23
 36 39 0 0 0
SMALL
GASTEIGER

@<TRIPOS>ATOM
      1 C           5.8261    7.4780   15.8634 C.3     1  UNL1        0.0000
      2 C           5.0447    8.7373   16.3007 C.3     1  UNL1        0.0000
      3 H           4.0323    8.5541   16.6578 H       1  UNL1        0.0000
      4 C           5.0523    6.1560   15.9481 C.3     1  UNL1        0.0000
      5 H           4.1981    6.2598   16.6273 H       1  UNL1        0.0000
      6 H           4.6361    5.9009   14.9675 H       1  UNL1        0.0000
      7 C           5.8910    4.9543   16.3899 C.3     1  UNL1        0.0000
      8 H           6.7930    4.9234   15.7764 H       1  UNL1        0.0000
      9 H           5.3298    4.0252   16.2009 H       1  UNL1        0.0000
     10 C           7.5011    4.2441   18.0278 C.3     1  UNL1        0.0000
     11 H           7.3693    3.1926   17.7371 H       1  UNL1        0.0000
     12 H           7.7634    4.2847   19.0835 H       1  UNL1        0.0000
     13 H           8.3193    4.6686   17.4487 H       1  UNL1        0.0000
     14 C           5.2275    4.4857   18.6570 C.3     1  UNL1        0.0000
     15 H           5.0746    3.4110   18.4817 H       1  UNL1        0.0000
     16 H           4.2894    4.9992   18.4615 H       1  UNL1        0.0000
     17 H           5.4929    4.6378   19.7031 H       1  UNL1        0.0000
     18 N           6.2858    5.0221   17.8052 N.3     1  UNL1        0.0000
     19 B           5.9456    9.9039   16.9529 B       1  UNL1        0.0000
     20 H           5.5057   10.5825   17.8194 H       1  UNL1        0.0000
     21 B           7.6334    9.2565   16.8857 B       1  UNL1        0.0000
     22 H           8.5852    9.6431   17.4793 H       1  UNL1        0.0000
     23 B           7.4255    7.6271   16.1265 B       1  UNL1        0.0000
     24 H           8.1400    6.6854   16.2807 H       1  UNL1        0.0000
     25 B           5.2046    8.5403   14.5985 B       1  UNL1        0.0000
     26 H           4.2707    8.1552   13.9909 H       1  UNL1        0.0000
     27 B           5.3304   10.1334   15.2908 B       1  UNL1        0.0000
     28 H           4.4629   10.9094   15.1147 H       1  UNL1        0.0000
     29 B           7.0176   10.4403   15.6876 B       1  UNL1        0.0000
     30 H           7.5085   11.5125   15.6761 H       1  UNL1        0.0000
     31 B           7.9527    8.9747   15.1423 B       1  UNL1        0.0000
     32 H           9.0699    9.0601   14.7704 H       1  UNL1        0.0000
     33 B           6.7940    7.8357   14.4605 B       1  UNL1        0.0000
     34 H           7.0004    6.9764   13.6788 H       1  UNL1        0.0000
     35 B           6.5778    9.5723   14.1768 B       1  UNL1        0.0000
     36 H           6.7230   10.0478   13.1092 H       1  UNL1        0.0000
@<TRIPOS>BOND
     1    36    35    1
     2    34    33    1
     3    26    25    1
     4    35    31    1
     5    35    27    1
     6    33    25    1
     7    33    31    1
     8    33     1    1
     9    25    27    1
    10    25     2    1
    11    32    31    1
    12     6     4    1
    13    28    27    1
    14    31    23    1
    15    27    29    1
    16    30    29    1
    17    29    21    1
    18    29    19    1
    19     8     7    1
    20     1     4    1
    21     1    23    1
    22     1     2    1
    23     4     7    1
    24     4     5    1
    25    23    24    1
    26     9     7    1
    27     2     3    1
    28     2    19    1
    29     7    18    1
    30    21    22    1
    31    19    20    1
    32    13    10    1
    33    11    10    1
    34    18    10    1
    35    18    14    1
    36    10    12    1
    37    16    14    1
    38    15    14    1
    39    14    17    1
