@<TRIPOS>MOLECULE
1,2,5
 89 91 0 0 0
SMALL
GASTEIGER

@<TRIPOS>ATOM
      1 P           4.0482   12.2100   13.5128 P.3     1  UNL1        0.0000
      2 P           3.7305   14.7546   10.8538 P.3     1  UNL1        0.0000
      3 SI          3.5073   17.3656   15.5226 Si      1  UNL1        0.0000
      4 O           2.7797   16.2593   14.5574 O.3     1  UNL1        0.0000
      5 C           2.9435   15.2461   13.7868 C.3     1  UNL1        0.0000
      6 C          -0.5550   16.4178   10.5535 C.ar    1  UNL1        0.0000
      7 H          -1.5757   16.7624   10.4607 H       1  UNL1        0.0000
      8 C           2.4924   12.6330    9.5712 C.3     1  UNL1        0.0000
      9 H           1.5562   13.1619    9.3997 H       1  UNL1        0.0000
     10 H           2.4758   12.2484   10.5891 H       1  UNL1        0.0000
     11 H           2.5433   11.7902    8.8826 H       1  UNL1        0.0000
     12 C           1.4052   12.8398   12.9147 C.ar    1  UNL1        0.0000
     13 C           1.9452   10.4559   12.9146 C.ar    1  UNL1        0.0000
     14 H           2.6602    9.6648   13.0898 H       1  UNL1        0.0000
     15 C           4.7950   16.1358   10.1672 C.3     1  UNL1        0.0000
     16 H           4.4849   16.3878    9.1485 H       1  UNL1        0.0000
     17 C          -0.1610   15.7180   11.6787 C.ar    1  UNL1        0.0000
     18 H          -0.8966   15.5345   12.4492 H       1  UNL1        0.0000
     19 C           0.3648   16.6888    9.5564 C.ar    1  UNL1        0.0000
     20 H           0.0821   17.2647    8.6861 H       1  UNL1        0.0000
     21 C           3.6770   13.5730    9.3675 C.3     1  UNL1        0.0000
     22 H           4.6061   12.9939    9.4753 H       1  UNL1        0.0000
     23 C           0.6714   10.1287   12.4970 C.ar    1  UNL1        0.0000
     24 H           0.3949    9.0946   12.3464 H       1  UNL1        0.0000
     25 C          -0.2390   11.1468   12.2694 C.ar    1  UNL1        0.0000
     26 H          -1.2381   10.9143   11.9283 H       1  UNL1        0.0000
     27 C           0.0143   16.0192   14.7110 C.ar    1  UNL1        0.0000
     28 H           0.2826   16.8304   14.0482 H       1  UNL1        0.0000
     29 C           4.7620   18.4501   14.5787 C.3     1  UNL1        0.0000
     30 H           5.6060   17.8686   14.2213 H       1  UNL1        0.0000
     31 H           5.1545   19.2336   15.2197 H       1  UNL1        0.0000
     32 H           4.3068   18.9315   13.7179 H       1  UNL1        0.0000
     33 C           1.1408   15.2469   11.8572 C.ar    1  UNL1        0.0000
     34 C          -0.8279   16.2832   15.7760 C.ar    1  UNL1        0.0000
     35 H          -1.2160   17.2831   15.9211 H       1  UNL1        0.0000
     36 C           0.5224   14.7425   14.4691 C.ar    1  UNL1        0.0000
     37 C           4.6400   17.3612   11.0559 C.3     1  UNL1        0.0000
     38 H           4.8734   17.0853   12.0835 H       1  UNL1        0.0000
     39 H           3.6175   17.7336   11.0255 H       1  UNL1        0.0000
     40 H           5.3110   18.1576   10.7364 H       1  UNL1        0.0000
     41 C           3.6520   14.1277    7.9459 C.3     1  UNL1        0.0000
     42 H           3.6985   13.2915    7.2474 H       1  UNL1        0.0000
     43 H           4.5002   14.7756    7.7388 H       1  UNL1        0.0000
     44 H           2.7296   14.6668    7.7493 H       1  UNL1        0.0000
     45 C           2.3188   11.7864   13.1089 C.ar    1  UNL1        0.0000
     46 C           0.1620   13.7479   15.3769 C.ar    1  UNL1        0.0000
     47 H           0.5269   12.7387   15.2365 H       1  UNL1        0.0000
     48 C           3.7505   12.9833   16.1744 C.3     1  UNL1        0.0000
     49 H           2.6998   13.2152   16.0125 H       1  UNL1        0.0000
     50 H           4.3346   13.8510   15.8734 H       1  UNL1        0.0000
     51 H           3.9053   12.7968   17.2367 H       1  UNL1        0.0000
     52 C           0.1272   12.4597   12.4901 C.ar    1  UNL1        0.0000
     53 H          -0.6106   13.2302   12.3237 H       1  UNL1        0.0000
     54 C           6.2423   15.6554   10.1557 C.3     1  UNL1        0.0000
     55 H           6.9138   16.4550    9.8449 H       1  UNL1        0.0000
     56 H           6.3731   14.8138    9.4777 H       1  UNL1        0.0000
     57 H           6.5175   15.3331   11.1610 H       1  UNL1        0.0000
     58 C           2.0396   15.4722   10.8029 C.ar    1  UNL1        0.0000
     59 C           4.3936   16.4952   16.9698 C.3     1  UNL1        0.0000
     60 H           3.7261   15.8117   17.4865 H       1  UNL1        0.0000
     61 H           4.7538   17.2155   17.6977 H       1  UNL1        0.0000
     62 H           5.2486   15.9228   16.6222 H       1  UNL1        0.0000
     63 C           1.6524   16.2055    9.6822 C.ar    1  UNL1        0.0000
     64 H           2.3663   16.4253    8.9027 H       1  UNL1        0.0000
     65 C          -0.6702   14.0020   16.4531 C.ar    1  UNL1        0.0000
     66 H          -0.9280   13.2019   17.1345 H       1  UNL1        0.0000
     67 C           4.1631   11.7699   15.3502 C.3     1  UNL1        0.0000
     68 H           5.2256   11.5663   15.5402 H       1  UNL1        0.0000
     69 C           5.1253   10.8216   12.8461 C.3     1  UNL1        0.0000
     70 H           4.9586    9.9062   13.4258 H       1  UNL1        0.0000
     71 C           2.0636   18.4238   16.1537 C.3     1  UNL1        0.0000
     72 H           1.5483   18.9301   15.3436 H       1  UNL1        0.0000
     73 H           2.4221   19.1843   16.8393 H       1  UNL1        0.0000
     74 H           1.3309   17.8203   16.6797 H       1  UNL1        0.0000
     75 C           3.3550   10.5468   15.7718 C.3     1  UNL1        0.0000
     76 H           3.4952   10.3701   16.8381 H       1  UNL1        0.0000
     77 H           3.6660    9.6484   15.2436 H       1  UNL1        0.0000
     78 H           2.2943   10.7051   15.5915 H       1  UNL1        0.0000
     79 C           4.8684   10.5563   11.3691 C.3     1  UNL1        0.0000
     80 H           5.0664   11.4625   10.8009 H       1  UNL1        0.0000
     81 H           3.8420   10.2509   11.1828 H       1  UNL1        0.0000
     82 H           5.5316    9.7715   11.0057 H       1  UNL1        0.0000
     83 C          -1.1755   15.2737   16.6567 C.ar    1  UNL1        0.0000
     84 H          -1.8311   15.4761   17.4925 H       1  UNL1        0.0000
     85 C           6.5726   11.2812   13.0254 C.3     1  UNL1        0.0000
     86 H           7.2599   10.5732   12.5636 H       1  UNL1        0.0000
     87 H           6.8397   11.3752   14.0759 H       1  UNL1        0.0000
     88 H           6.6990   12.2573   12.5525 H       1  UNL1        0.0000
     89 B           1.5344   14.4502   13.2275 B       1  UNL1        0.0000
@<TRIPOS>BOND
     1    42    41    1
     2    43    41    1
     3    44    41    1
     4    41    21    1
     5    20    19    1
     6    11     8    1
     7    64    63    1
     8    16    15    1
     9    21    22    1
    10    21     8    1
    11    21     2    1
    12     9     8    1
    13    56    54    1
    14    19    63   ar
    15    19     6   ar
    16     8    10    1
    17    63    58   ar
    18    55    54    1
    19    54    15    1
    20    54    57    1
    21    15     2    1
    22    15    37    1
    23     7     6    1
    24     6    17   ar
    25    40    37    1
    26    80    79    1
    27    58     2    1
    28    58    33   ar
    29    82    79    1
    30    39    37    1
    31    37    38    1
    32    81    79    1
    33    79    69    1
    34    17    33   ar
    35    17    18    1
    36    33    89    1
    37    26    25    1
    38    25    52   ar
    39    25    23   ar
    40    53    52    1
    41    24    23    1
    42    52    12   ar
    43    23    13   ar
    44    88    85    1
    45    86    85    1
    46    69    85    1
    47    69    70    1
    48    69     1    1
    49    13    14    1
    50    13    45   ar
    51    12    45   ar
    52    12    89    1
    53    85    87    1
    54    45     1    1
    55    89     5    1
    56    89    36    1
    57     1    67    1
    58    32    29    1
    59     5     4    1
    60    28    27    1
    61    30    29    1
    62    36    27   ar
    63    36    46   ar
    64     4     3    1
    65    29    31    1
    66    29     3    1
    67    27    34   ar
    68    47    46    1
    69    77    75    1
    70    72    71    1
    71    67    68    1
    72    67    75    1
    73    67    48    1
    74    46    65   ar
    75     3    71    1
    76     3    59    1
    77    78    75    1
    78    75    76    1
    79    34    35    1
    80    34    83   ar
    81    50    48    1
    82    49    48    1
    83    71    74    1
    84    71    73    1
    85    48    51    1
    86    65    83   ar
    87    65    66    1
    88    62    59    1
    89    83    84    1
    90    59    60    1
    91    59    61    1
