@<TRIPOS>MOLECULE
1,2,6
 44 44 0 0 0
SMALL
GASTEIGER

@<TRIPOS>ATOM
      1 P           9.3620   11.0576   11.1164 P.3     1  UNL1       -0.0847
      2 P           8.2347   10.1456   13.3109 P.3     1  UNL1       -0.0582
      3 C           9.8247   12.6700   10.2978 C.3     1  UNL1       -0.0309
      4 H           9.0131   12.9206    9.6112 H       1  UNL1        0.0314
      5 H           9.9115   13.4713   11.0339 H       1  UNL1        0.0314
      6 C           7.7255   11.0339   11.8697 C.3     1  UNL1        0.0352
      7 C          11.1309   12.4930    9.5260 C.3     1  UNL1       -0.0493
      8 H          11.8922   12.0818   10.1960 H       1  UNL1        0.0269
      9 H          10.9760   11.7677    8.7226 H       1  UNL1        0.0269
     10 C           9.9721   10.8090   12.8676 C.3     1  UNL1        0.0103
     11 C          10.4942   11.9130   13.7985 C.3     1  UNL1       -0.0267
     12 C           6.4169   11.6807   11.5076 C.3     1  UNL1       -0.0227
     13 C           6.1941   11.6810    9.9939 C.3     1  UNL1       -0.0589
     14 H           6.9772   12.2363    9.4826 H       1  UNL1        0.0235
     15 H           5.2367   12.1409    9.7576 H       1  UNL1        0.0235
     16 H           6.1891   10.6601    9.6163 H       1  UNL1        0.0235
     17 C           9.4873   13.0425   13.9922 C.3     1  UNL1       -0.0592
     18 H           9.2043   13.4870   13.0425 H       1  UNL1        0.0235
     19 H           9.9097   13.8197   14.6262 H       1  UNL1        0.0235
     20 H           8.5879   12.6590   14.4716 H       1  UNL1        0.0235
     21 C          11.6532   13.8003    8.9302 C.3     1  UNL1       -0.0556
     22 H          11.7784   14.5378    9.7273 H       1  UNL1        0.0263
     23 H          12.6389   13.6135    8.4978 H       1  UNL1        0.0263
     24 C          10.7533   11.2547   15.1595 C.3     1  UNL1       -0.0592
     25 H           9.8433   10.7817   15.5272 H       1  UNL1        0.0235
     26 H          11.0717   11.9985   15.8867 H       1  UNL1        0.0235
     27 H          11.5279   10.4951   15.0812 H       1  UNL1        0.0235
     28 C           6.4431   13.1330   12.0083 C.3     1  UNL1       -0.0589
     29 H           6.5639   13.1604   13.0886 H       1  UNL1        0.0235
     30 H           5.5086   13.6285   11.7526 H       1  UNL1        0.0235
     31 H           7.2605   13.6857   11.5494 H       1  UNL1        0.0235
     32 C           5.2659   10.9416   12.1892 C.3     1  UNL1       -0.0589
     33 H           5.1762    9.9410   11.7736 H       1  UNL1        0.0235
     34 H           4.3274   11.4702   12.0378 H       1  UNL1        0.0235
     35 H           5.4525   10.8620   13.2600 H       1  UNL1        0.0235
     36 C          11.8186   12.4679   13.2664 C.3     1  UNL1       -0.0592
     37 H          12.5193   11.6589   13.0686 H       1  UNL1        0.0235
     38 H          12.2666   13.1341   14.0014 H       1  UNL1        0.0235
     39 H          11.6721   13.0283   12.3480 H       1  UNL1        0.0235
     40 C          10.7394   14.3693    7.8509 C.3     1  UNL1       -0.0653
     41 H          10.5643   13.6297    7.0724 H       1  UNL1        0.0230
     42 H          11.1957   15.2447    7.3950 H       1  UNL1        0.0230
     43 H           9.7796   14.6685    8.2648 H       1  UNL1        0.0230
     44 H          10.7253   10.0155   12.8748 H       1  UNL1        0.0406
@<TRIPOS>BOND
     1    41    40    1
     2    42    40    1
     3    40    43    1
     4    40    21    1
     5    23    21    1
     6     9     7    1
     7    21     7    1
     8    21    22    1
     9    14    13    1
    10     7     8    1
    11     7     3    1
    12     4     3    1
    13    16    13    1
    14    15    13    1
    15    13    12    1
    16     3     5    1
    17     3     1    1
    18     1     6    1
    19     1    10    1
    20    12     6    1
    21    12    28    1
    22    12    32    1
    23    31    28    1
    24    30    28    1
    25    33    32    1
    26     6     2    1
    27    28    29    1
    28    34    32    1
    29    32    35    1
    30    39    36    1
    31    10    44    1
    32    10     2    1
    33    10    11    1
    34    18    17    1
    35    37    36    1
    36    36    11    1
    37    36    38    1
    38    11    17    1
    39    11    24    1
    40    17    20    1
    41    17    19    1
    42    27    24    1
    43    24    25    1
    44    24    26    1
