@<TRIPOS>MOLECULE
1,2,5
 65 65 0 0 0
SMALL
GASTEIGER

@<TRIPOS>ATOM
      1 P           3.5231    9.2240    2.8533 P.3     1  UNL1        0.1000
      2 P           7.3517    7.7215    5.0070 P.3     1  UNL1        0.1000
      3 O           3.8192   10.7527    3.3213 O.3     1  UNL1       -0.4709
      4 C           5.0401   11.0226    3.8988 C.ar    1  UNL1        0.1359
      5 C           5.9066    9.9724    4.1757 C.ar    1  UNL1        0.0730
      6 C           7.1028   10.2621    4.8232 C.ar    1  UNL1        0.1359
      7 O           7.9453    9.2236    5.1626 O.3     1  UNL1       -0.4709
      8 C           5.3660   12.3310    4.2235 C.ar    1  UNL1       -0.0188
      9 H           4.6728   13.1232    3.9915 H       1  UNL1        0.0654
     10 C           6.5774   12.5925    4.8403 C.ar    1  UNL1       -0.0548
     11 H           6.8404   13.6076    5.0889 H       1  UNL1        0.0620
     12 C           7.4482   11.5630    5.1550 C.ar    1  UNL1       -0.0188
     13 H           8.3842   11.7535    5.6544 H       1  UNL1        0.0654
     14 C           1.8381    9.0027    3.6708 C.3     1  UNL1        0.0182
     15 C           2.1988    8.6350    5.1147 C.3     1  UNL1       -0.0531
     16 H           2.7844    9.4312    5.5777 H       1  UNL1        0.0239
     17 H           2.7606    7.6999    5.1472 H       1  UNL1        0.0239
     18 H           1.2982    8.4983    5.7116 H       1  UNL1        0.0239
     19 C           1.0855    7.8508    3.0150 C.3     1  UNL1       -0.0531
     20 H           0.2420    7.5550    3.6377 H       1  UNL1        0.0239
     21 H           1.7361    6.9870    2.8814 H       1  UNL1        0.0239
     22 H           0.6908    8.1426    2.0451 H       1  UNL1        0.0239
     23 C           0.9903   10.2711    3.6853 C.3     1  UNL1       -0.0531
     24 H           0.6138   10.5201    2.6993 H       1  UNL1        0.0239
     25 H           1.5577   11.1173    4.0646 H       1  UNL1        0.0239
     26 H           0.1334   10.1178    4.3399 H       1  UNL1        0.0239
     27 C           3.4304    9.4861    0.9882 C.3     1  UNL1        0.0182
     28 C           3.3085    8.1359    0.2924 C.3     1  UNL1       -0.0531
     29 H           2.3562    7.6582    0.5043 H       1  UNL1        0.0239
     30 H           4.1148    7.4790    0.6108 H       1  UNL1        0.0239
     31 H           3.3811    8.2703   -0.7849 H       1  UNL1        0.0239
     32 C           2.2944   10.4210    0.5887 C.3     1  UNL1       -0.0531
     33 H           2.3097   11.3250    1.1935 H       1  UNL1        0.0239
     34 H           1.3247    9.9389    0.6818 H       1  UNL1        0.0239
     35 H           2.4184   10.7117   -0.4531 H       1  UNL1        0.0239
     36 C           4.7664   10.1291    0.6075 C.3     1  UNL1       -0.0531
     37 H           4.8474   10.1925   -0.4752 H       1  UNL1        0.0239
     38 H           5.6050    9.5405    0.9803 H       1  UNL1        0.0239
     39 H           4.8455   11.1357    1.0109 H       1  UNL1        0.0239
     40 C           7.0031    7.3126    6.8187 C.3     1  UNL1        0.0182
     41 C           5.6952    8.0663    7.0911 C.3     1  UNL1       -0.0531
     42 H           4.9194    7.7813    6.3714 H       1  UNL1        0.0239
     43 H           5.8486    9.1445    7.0351 H       1  UNL1        0.0239
     44 H           5.3187    7.8336    8.0866 H       1  UNL1        0.0239
     45 C           8.0734    7.8174    7.7806 C.3     1  UNL1       -0.0531
     46 H           7.6822    7.7940    8.7968 H       1  UNL1        0.0239
     47 H           8.3537    8.8432    7.5518 H       1  UNL1        0.0239
     48 H           8.9646    7.1991    7.7544 H       1  UNL1        0.0239
     49 C           6.7770    5.8155    6.9846 C.3     1  UNL1       -0.0531
     50 H           7.7041    5.2622    6.8561 H       1  UNL1        0.0239
     51 H           6.0497    5.4533    6.2597 H       1  UNL1        0.0239
     52 H           6.4002    5.6043    7.9847 H       1  UNL1        0.0239
     53 C           8.8661    6.8864    4.2794 C.3     1  UNL1        0.0182
     54 C           9.2419    7.7337    3.0624 C.3     1  UNL1       -0.0531
     55 H           9.6314    8.7012    3.3678 H       1  UNL1        0.0239
     56 H           8.3739    7.8962    2.4221 H       1  UNL1        0.0239
     57 H          10.0076    7.2252    2.4811 H       1  UNL1        0.0239
     58 C          10.0368    6.8360    5.2535 C.3     1  UNL1       -0.0531
     59 H          10.9372    6.5380    4.7190 H       1  UNL1        0.0239
     60 H           9.8675    6.1105    6.0452 H       1  UNL1        0.0239
     61 H          10.2137    7.8155    5.6914 H       1  UNL1        0.0239
     62 C           8.4645    5.4908    3.8147 C.3     1  UNL1       -0.0531
     63 H           7.6294    5.5584    3.1186 H       1  UNL1        0.0239
     64 H           8.1771    4.8581    4.6498 H       1  UNL1        0.0239
     65 H           9.3010    5.0168    3.3050 H       1  UNL1        0.0239
@<TRIPOS>BOND
     1    31    28    1
     2    37    36    1
     3    35    32    1
     4    28    29    1
     5    28    30    1
     6    28    27    1
     7    32    34    1
     8    32    27    1
     9    32    33    1
    10    36    38    1
    11    36    27    1
    12    36    39    1
    13    27     1    1
    14    22    19    1
    15    56    54    1
    16    57    54    1
    17    24    23    1
    18     1     3    1
    19     1    14    1
    20    21    19    1
    21    19    20    1
    22    19    14    1
    23    54    55    1
    24    54    53    1
    25    63    62    1
    26    65    62    1
    27     3     4    1
    28    14    23    1
    29    14    15    1
    30    23    25    1
    31    23    26    1
    32    62    53    1
    33    62    64    1
    34     4     5   ar
    35     4     8   ar
    36     9     8    1
    37     5     6   ar
    38     8    10   ar
    39    53     2    1
    40    53    58    1
    41    59    58    1
    42     6    12   ar
    43     6     7    1
    44    10    11    1
    45    10    12   ar
    46     2     7    1
    47     2    40    1
    48    15    17    1
    49    15    16    1
    50    15    18    1
    51    12    13    1
    52    58    61    1
    53    58    60    1
    54    51    49    1
    55    42    41    1
    56    40    49    1
    57    40    41    1
    58    40    45    1
    59    50    49    1
    60    49    52    1
    61    43    41    1
    62    41    44    1
    63    47    45    1
    64    48    45    1
    65    45    46    1
