@<TRIPOS>MOLECULE
1,2,7
 106 111 0 0 0
SMALL
GASTEIGER

@<TRIPOS>ATOM
      1 P           9.2353    6.9806    3.6339 P.3     1  UNL1        0.0000
      2 P           7.9498    6.0944    7.1057 P.3     1  UNL1        0.0000
      3 SI         10.2170    7.8585    7.6842 Si      1  UNL1        0.0000
      4 SI         11.7803    7.6645    4.9310 Si      1  UNL1        0.0000
      5 SI         11.5908    5.1461    6.8271 Si      1  UNL1        0.0000
      6 P          13.0676    2.8251    5.4052 P.3     1  UNL1        0.0000
      7 C          10.7562    6.7601    6.2451 C.3     1  UNL1        0.0000
      8 C          10.3950    8.3895    3.8211 C.3     1  UNL1        0.0000
      9 H           9.8895    9.1906    4.3512 H       1  UNL1        0.0000
     10 H          10.7264    8.7641    2.8554 H       1  UNL1        0.0000
     11 C           8.7452    6.9473    8.5098 C.3     1  UNL1        0.0000
     12 H           9.1031    6.1827    9.1948 H       1  UNL1        0.0000
     13 H           8.0488    7.5804    9.0539 H       1  UNL1        0.0000
     14 C           9.7696    6.2989    2.0149 C.ar    1  UNL1        0.0000
     15 C          11.5617    3.8978    5.3614 C.3     1  UNL1        0.0000
     16 H          10.6688    3.2716    5.3903 H       1  UNL1        0.0000
     17 H          11.5753    4.4377    4.4167 H       1  UNL1        0.0000
     18 C          12.8541    1.8685    3.8506 C.ar    1  UNL1        0.0000
     19 C           6.6223    7.2283    6.5539 C.ar    1  UNL1        0.0000
     20 C           7.7100    7.7851    3.0012 C.ar    1  UNL1        0.0000
     21 C           9.5088    9.5465    7.1206 C.3     1  UNL1        0.0000
     22 H          10.2636   10.1523    6.6330 H       1  UNL1        0.0000
     23 H           9.1376   10.1171    7.9674 H       1  UNL1        0.0000
     24 H           8.6838    9.4121    6.4280 H       1  UNL1        0.0000
     25 C           9.9808    4.9307    1.9053 C.ar    1  UNL1        0.0000
     26 H           9.8350    4.3127    2.7810 H       1  UNL1        0.0000
     27 C           6.8442    4.9115    7.9782 C.ar    1  UNL1        0.0000
     28 C          11.5168    8.2155    9.0356 C.3     1  UNL1        0.0000
     29 H          12.3997    8.6650    8.5984 H       1  UNL1        0.0000
     30 H          11.8252    7.3095    9.5446 H       1  UNL1        0.0000
     31 H          11.1361    8.9026    9.7844 H       1  UNL1        0.0000
     32 C           9.9270    7.0994    0.8872 C.ar    1  UNL1        0.0000
     33 H           9.7307    8.1610    0.9478 H       1  UNL1        0.0000
     34 C          10.8002    4.2351    8.3147 C.3     1  UNL1        0.0000
     35 H          10.9829    4.7709    9.2393 H       1  UNL1        0.0000
     36 H          11.2259    3.2428    8.4255 H       1  UNL1        0.0000
     37 H           9.7275    4.1219    8.1946 H       1  UNL1        0.0000
     38 C          12.4752    1.5900    6.6308 C.ar    1  UNL1        0.0000
     39 C          12.9417    9.0288    5.5853 C.3     1  UNL1        0.0000
     40 H          13.7498    8.5782    6.1485 H       1  UNL1        0.0000
     41 H          12.4344    9.7240    6.2417 H       1  UNL1        0.0000
     42 H          13.3842    9.5982    4.7751 H       1  UNL1        0.0000
     43 C           5.8096    5.3479    8.7999 C.ar    1  UNL1        0.0000
     44 H           5.6236    6.4073    8.9106 H       1  UNL1        0.0000
     45 C           6.2376    8.4269    7.1402 C.ar    1  UNL1        0.0000
     46 H           6.7771    8.8270    7.9854 H       1  UNL1        0.0000
     47 C           6.9047    7.0732    2.1131 C.ar    1  UNL1        0.0000
     48 H           7.2086    6.0816    1.8043 H       1  UNL1        0.0000
     49 C           5.9093    6.7583    5.4531 C.ar    1  UNL1        0.0000
     50 H           6.2440    5.8418    4.9846 H       1  UNL1        0.0000
     51 C          13.4121    5.4254    7.3388 C.3     1  UNL1        0.0000
     52 H          13.4974    6.2212    8.0691 H       1  UNL1        0.0000
     53 H          14.0325    5.6908    6.4907 H       1  UNL1        0.0000
     54 H          13.8250    4.5236    7.7787 H       1  UNL1        0.0000
     55 C          12.8631    6.6423    3.7243 C.3     1  UNL1        0.0000
     56 H          13.4971    5.9283    4.2386 H       1  UNL1        0.0000
     57 H          13.5141    7.2997    3.1538 H       1  UNL1        0.0000
     58 H          12.2518    6.1000    3.0086 H       1  UNL1        0.0000
     59 C          13.2799    1.3348    7.7345 C.ar    1  UNL1        0.0000
     60 H          14.2298    1.8443    7.8223 H       1  UNL1        0.0000
     61 C           5.0151    4.4340    9.4660 C.ar    1  UNL1        0.0000
     62 H           4.2125    4.7805   10.1014 H       1  UNL1        0.0000
     63 C          10.3565    4.3676    0.6984 C.ar    1  UNL1        0.0000
     64 H          10.5105    3.3015    0.6295 H       1  UNL1        0.0000
     65 C          10.8573    0.0289    7.4854 C.ar    1  UNL1        0.0000
     66 H           9.9134   -0.4874    7.3837 H       1  UNL1        0.0000
     67 C          11.2598    0.9231    6.5115 C.ar    1  UNL1        0.0000
     68 H          10.6318    1.0927    5.6478 H       1  UNL1        0.0000
     69 C          12.8817    0.4779    3.8077 C.ar    1  UNL1        0.0000
     70 H          12.9161   -0.0888    4.7276 H       1  UNL1        0.0000
     71 C           7.2937    9.0469    3.4085 C.ar    1  UNL1        0.0000
     72 H           7.8777    9.6092    4.1221 H       1  UNL1        0.0000
     73 C          11.6612   -0.2105    8.5890 C.ar    1  UNL1        0.0000
     74 H          11.3416   -0.9084    9.3493 H       1  UNL1        0.0000
     75 C           5.3536    8.8968    2.0040 C.ar    1  UNL1        0.0000
     76 H           4.4481    9.3338    1.6094 H       1  UNL1        0.0000
     77 C          12.8654    1.9069    1.4384 C.ar    1  UNL1        0.0000
     78 H          12.8860    2.4691    0.5152 H       1  UNL1        0.0000
     79 C           7.0659    3.5473    7.8355 C.ar    1  UNL1        0.0000
     80 H           7.8607    3.2079    7.1871 H       1  UNL1        0.0000
     81 C           5.7405    7.6241    1.6156 C.ar    1  UNL1        0.0000
     82 H           5.1335    7.0619    0.9201 H       1  UNL1        0.0000
     83 C          10.3147    6.5402   -0.3158 C.ar    1  UNL1        0.0000
     84 H          10.4406    7.1692   -1.1855 H       1  UNL1        0.0000
     85 C          10.5327    5.1744   -0.4124 C.ar    1  UNL1        0.0000
     86 H          10.8310    4.7416   -1.3563 H       1  UNL1        0.0000
     87 C           4.4284    8.6328    5.5715 C.ar    1  UNL1        0.0000
     88 H           3.5721    9.1758    5.1993 H       1  UNL1        0.0000
     89 C           4.8097    7.4410    4.9758 C.ar    1  UNL1        0.0000
     90 H           4.2546    7.0550    4.1342 H       1  UNL1        0.0000
     91 C          12.8658   -0.1884    2.5959 C.ar    1  UNL1        0.0000
     92 H          12.8733   -1.2691    2.5789 H       1  UNL1        0.0000
     93 C           6.1299    9.6014    2.9074 C.ar    1  UNL1        0.0000
     94 H           5.8277   10.5890    3.2249 H       1  UNL1        0.0000
     95 C          12.8675    2.5729    2.6487 C.ar    1  UNL1        0.0000
     96 H          12.8902    3.6539    2.6631 H       1  UNL1        0.0000
     97 C          12.8549    0.5219    1.4077 C.ar    1  UNL1        0.0000
     98 H          12.8523   -0.0012    0.4621 H       1  UNL1        0.0000
     99 C          12.8760    0.4413    8.7115 C.ar    1  UNL1        0.0000
    100 H          13.5084    0.2527    9.5672 H       1  UNL1        0.0000
    101 C           5.1521    9.1282    6.6415 C.ar    1  UNL1        0.0000
    102 H           4.8637   10.0631    7.1014 H       1  UNL1        0.0000
    103 C           6.2711    2.6326    8.5039 C.ar    1  UNL1        0.0000
    104 H           6.4534    1.5744    8.3870 H       1  UNL1        0.0000
    105 C           5.2442    3.0748    9.3199 C.ar    1  UNL1        0.0000
    106 H           4.6203    2.3633    9.8410 H       1  UNL1        0.0000
@<TRIPOS>BOND
     1    86    85    1
     2    84    83    1
     3    85    83   ar
     4    85    63   ar
     5    83    32   ar
     6    98    97    1
     7    78    77    1
     8    64    63    1
     9    63    25   ar
    10    32    33    1
    11    32    14   ar
    12    82    81    1
    13    97    77   ar
    14    97    91   ar
    15    77    95   ar
    16    76    75    1
    17    81    75   ar
    18    81    47   ar
    19    48    47    1
    20    25    14   ar
    21    25    26    1
    22    75    93   ar
    23    14     1    1
    24    47    20   ar
    25    92    91    1
    26    91    69   ar
    27    95    96    1
    28    95    18   ar
    29    10     8    1
    30    93    94    1
    31    93    71   ar
    32    20    71   ar
    33    20     1    1
    34    58    55    1
    35    57    55    1
    36    71    72    1
    37     1     8    1
    38    55    56    1
    39    55     4    1
    40    69    18   ar
    41    69    70    1
    42     8     9    1
    43     8     4    1
    44    18     6    1
    45    90    89    1
    46    17    15    1
    47    42    39    1
    48     4    39    1
    49     4     7    1
    50    89    49   ar
    51    89    87   ar
    52    50    49    1
    53    88    87    1
    54    15    16    1
    55    15     6    1
    56    15     5    1
    57     6    38    1
    58    49    19   ar
    59    87   101   ar
    60    39    40    1
    61    39    41    1
    62    68    67    1
    63     7     5    1
    64     7     3    1
    65    24    21    1
    66    53    51    1
    67    67    38   ar
    68    67    65   ar
    69    19     2    1
    70    19    45   ar
    71    38    59   ar
    72    22    21    1
    73   101   102    1
    74   101    45   ar
    75     5    51    1
    76     5    34    1
    77     2    27    1
    78     2    11    1
    79    21     3    1
    80    21    23    1
    81    45    46    1
    82    80    79    1
    83    51    54    1
    84    51    52    1
    85    66    65    1
    86    65    73   ar
    87     3    11    1
    88     3    28    1
    89    59    60    1
    90    59    99   ar
    91    79    27   ar
    92    79   103   ar
    93    27    43   ar
    94    37    34    1
    95    34    36    1
    96    34    35    1
    97   104   103    1
    98   103   105   ar
    99    11    13    1
   100    11    12    1
   101    73    99   ar
   102    73    74    1
   103    29    28    1
   104    99   100    1
   105    43    44    1
   106    43    61   ar
   107    28    30    1
   108    28    31    1
   109   105    61   ar
   110   105   106    1
   111    61    62    1
