@<TRIPOS>MOLECULE
1,2,7
 69 69 0 0 0
SMALL
GASTEIGER

@<TRIPOS>ATOM
      1 P           1.3168   -1.3653    3.4023 P.3     1  UNL1       -0.0904
      2 P           5.0125    1.3055    2.9995 P.3     1  UNL1       -0.0904
      3 C           1.8881   -2.3830    4.8245 C.3     1  UNL1       -0.0055
      4 H           1.4192   -1.9787    5.7294 H       1  UNL1        0.0362
      5 H           1.6012   -3.4342    4.7307 H       1  UNL1        0.0362
      6 C           3.3852   -2.2068    4.9406 C.ar    1  UNL1       -0.0351
      7 C           3.9747   -1.0296    4.4378 C.ar    1  UNL1       -0.0103
      8 C           5.3494   -0.8561    4.6796 C.ar    1  UNL1       -0.0351
      9 C           6.0155    0.4427    4.2848 C.3     1  UNL1       -0.0055
     10 H           7.0516    0.2916    3.9670 H       1  UNL1        0.0362
     11 H           6.0267    1.1025    5.1603 H       1  UNL1        0.0362
     12 C           4.1431   -3.1858    5.5660 C.ar    1  UNL1       -0.0576
     13 H           3.6679   -4.0881    5.9276 H       1  UNL1        0.0621
     14 C           5.5042   -3.0077    5.7427 C.ar    1  UNL1       -0.0612
     15 H           6.0937   -3.7704    6.2301 H       1  UNL1        0.0618
     16 C           6.1021   -1.8367    5.3116 C.ar    1  UNL1       -0.0576
     17 H           7.1616   -1.6840    5.4737 H       1  UNL1        0.0621
     18 C           1.5417   -2.5613    1.9237 C.3     1  UNL1       -0.0166
     19 C           1.6997   -1.6565    0.6971 C.3     1  UNL1       -0.0561
     20 H           1.9586   -2.2405   -0.1862 H       1  UNL1        0.0238
     21 H           2.4933   -0.9214    0.8627 H       1  UNL1        0.0238
     22 H           0.7801   -1.1129    0.4884 H       1  UNL1        0.0238
     23 C           2.8212   -3.3826    2.1297 C.3     1  UNL1       -0.0561
     24 H           3.1580   -3.7819    1.1730 H       1  UNL1        0.0238
     25 H           2.6395   -4.2245    2.7941 H       1  UNL1        0.0238
     26 H           3.6308   -2.7988    2.5589 H       1  UNL1        0.0238
     27 C           0.4199   -3.5688    1.6765 C.3     1  UNL1       -0.0561
     28 H           0.7256   -4.2355    0.8691 H       1  UNL1        0.0238
     29 H          -0.5080   -3.0946    1.3726 H       1  UNL1        0.0238
     30 H           0.2406   -4.1794    2.5584 H       1  UNL1        0.0238
     31 C          -0.5396   -1.0963    3.6796 C.3     1  UNL1       -0.0166
     32 C          -1.1671   -0.5075    2.4149 C.3     1  UNL1       -0.0561
     33 H          -2.1688   -0.1442    2.6416 H       1  UNL1        0.0238
     34 H          -1.2554   -1.2344    1.6119 H       1  UNL1        0.0238
     35 H          -0.5789    0.3400    2.0623 H       1  UNL1        0.0238
     36 C          -1.3098   -2.3224    4.1681 C.3     1  UNL1       -0.0561
     37 H          -2.2917   -2.0027    4.5161 H       1  UNL1        0.0238
     38 H          -0.8017   -2.7961    5.0054 H       1  UNL1        0.0238
     39 H          -1.4649   -3.0587    3.3875 H       1  UNL1        0.0238
     40 C          -0.6190   -0.0230    4.7654 C.3     1  UNL1       -0.0561
     41 H          -1.6573    0.2569    4.9375 H       1  UNL1        0.0238
     42 H          -0.0770    0.8722    4.4621 H       1  UNL1        0.0238
     43 H          -0.2094   -0.3830    5.7056 H       1  UNL1        0.0238
     44 C           5.6889    0.5730    1.3693 C.3     1  UNL1       -0.0166
     45 C           5.4896   -0.9349    1.5339 C.3     1  UNL1       -0.0561
     46 H           5.6887   -1.4550    0.5964 H       1  UNL1        0.0238
     47 H           4.4515   -1.1291    1.8209 H       1  UNL1        0.0238
     48 H           6.1413   -1.3530    2.2988 H       1  UNL1        0.0238
     49 C           7.1561    0.8351    1.0410 C.3     1  UNL1       -0.0561
     50 H           7.4379    0.2241    0.1827 H       1  UNL1        0.0238
     51 H           7.8071    0.5603    1.8684 H       1  UNL1        0.0238
     52 H           7.3356    1.8733    0.7759 H       1  UNL1        0.0238
     53 C           4.8046    1.0287    0.2016 C.3     1  UNL1       -0.0561
     54 H           4.9133    0.3404   -0.6374 H       1  UNL1        0.0238
     55 H           5.0679    2.0198   -0.1527 H       1  UNL1        0.0238
     56 H           3.7510    1.0462    0.4903 H       1  UNL1        0.0238
     57 C           5.6035    3.1096    3.1047 C.3     1  UNL1       -0.0166
     58 C           4.7962    3.7783    4.2176 C.3     1  UNL1       -0.0561
     59 H           5.0253    4.8425    4.2503 H       1  UNL1        0.0238
     60 H           5.0311    3.3591    5.1920 H       1  UNL1        0.0238
     61 H           3.7281    3.6670    4.0392 H       1  UNL1        0.0238
     62 C           5.2595    3.8344    1.8026 C.3     1  UNL1       -0.0561
     63 H           5.3357    4.9106    1.9528 H       1  UNL1        0.0238
     64 H           4.2350    3.6127    1.5046 H       1  UNL1        0.0238
     65 H           5.9378    3.5680    0.9967 H       1  UNL1        0.0238
     66 C           7.0903    3.2596    3.4268 C.3     1  UNL1       -0.0561
     67 H           7.3373    4.3208    3.4470 H       1  UNL1        0.0238
     68 H           7.7272    2.7844    2.6886 H       1  UNL1        0.0238
     69 H           7.3256    2.8484    4.4054 H       1  UNL1        0.0238
@<TRIPOS>BOND
     1    54    53    1
     2    20    19    1
     3    55    53    1
     4    50    49    1
     5    53    56    1
     6    53    44    1
     7    22    19    1
     8    46    45    1
     9    19    21    1
    10    19    18    1
    11    52    49    1
    12    28    27    1
    13    65    62    1
    14    49    44    1
    15    49    51    1
    16    24    23    1
    17    44    45    1
    18    44     2    1
    19    29    27    1
    20    64    62    1
    21    45    47    1
    22    45    48    1
    23    34    32    1
    24    27    18    1
    25    27    30    1
    26    62    63    1
    27    62    57    1
    28    18    23    1
    29    18     1    1
    30    35    32    1
    31    23    26    1
    32    23    25    1
    33    32    33    1
    34    32    31    1
    35    68    66    1
    36     2    57    1
    37     2     9    1
    38    57    66    1
    39    57    58    1
    40    39    36    1
    41     1    31    1
    42     1     3    1
    43    66    67    1
    44    66    69    1
    45    31    36    1
    46    31    40    1
    47    10     9    1
    48    61    58    1
    49    36    37    1
    50    36    38    1
    51    58    59    1
    52    58    60    1
    53     9     8    1
    54     9    11    1
    55     7     8   ar
    56     7     6   ar
    57    42    40    1
    58     8    16   ar
    59     5     3    1
    60    40    41    1
    61    40    43    1
    62     3     6    1
    63     3     4    1
    64     6    12   ar
    65    16    17    1
    66    16    14   ar
    67    12    14   ar
    68    12    13    1
    69    14    15    1
