@<TRIPOS>MOLECULE
1,2,40
 81 84 0 0 0
SMALL
GASTEIGER

@<TRIPOS>ATOM
      1 P          -5.8792    9.0348   14.0052 P.3     1  UNL1       -0.0993
      2 P          -1.4467    8.5943   14.5747 P.3     1  UNL1       -0.0995
      3 C          -7.1013    9.4960   11.5350 C.3     1  UNL1       -0.0463
      4 H          -8.0395    8.9903   11.7751 H       1  UNL1        0.0271
      5 H          -6.3678    8.7401   11.2403 H       1  UNL1        0.0271
      6 C          -7.3324   10.4624   10.3776 C.3     1  UNL1       -0.0525
      7 H          -6.3749   10.8978   10.0832 H       1  UNL1        0.0265
      8 H          -7.7302    9.9236    9.5147 H       1  UNL1        0.0265
      9 C          -8.2981   11.5704   10.7887 C.3     1  UNL1       -0.0530
     10 H          -9.2789   11.1353   10.9963 H       1  UNL1        0.0265
     11 H          -8.4180   12.2833    9.9698 H       1  UNL1        0.0265
     12 C          -7.7961   12.2913   12.0371 C.3     1  UNL1       -0.0525
     13 H          -8.5111   13.0635   12.3304 H       1  UNL1        0.0265
     14 H          -6.8455   12.7834   11.8163 H       1  UNL1        0.0265
     15 C          -7.6046   11.3017   13.1868 C.3     1  UNL1       -0.0463
     16 H          -7.2621   11.8375   14.0736 H       1  UNL1        0.0271
     17 H          -8.5674   10.8487   13.4182 H       1  UNL1        0.0271
     18 C          -6.5891   10.2450   12.7619 C.3     1  UNL1       -0.0202
     19 H          -5.6726   10.7783   12.4636 H       1  UNL1        0.0349
     20 C          -7.4283    6.7107   13.9141 C.3     1  UNL1       -0.0463
     21 H          -6.4570    6.2331   13.7530 H       1  UNL1        0.0271
     22 H          -7.8552    6.9533   12.9369 H       1  UNL1        0.0271
     23 C          -8.3531    5.7492   14.6549 C.3     1  UNL1       -0.0525
     24 H          -8.5159    4.8515   14.0536 H       1  UNL1        0.0265
     25 H          -7.8740    5.4450   15.5880 H       1  UNL1        0.0265
     26 C          -9.6899    6.4170   14.9658 C.3     1  UNL1       -0.0530
     27 H         -10.2005    6.6594   14.0297 H       1  UNL1        0.0265
     28 H         -10.3279    5.7281   15.5237 H       1  UNL1        0.0265
     29 C          -9.4779    7.6967   15.7707 C.3     1  UNL1       -0.0525
     30 H          -9.0178    7.4502   16.7302 H       1  UNL1        0.0265
     31 H         -10.4399    8.1743   15.9725 H       1  UNL1        0.0265
     32 C          -8.5720    8.6584   15.0034 C.3     1  UNL1       -0.0463
     33 H          -9.0563    8.9066   14.0569 H       1  UNL1        0.0271
     34 H          -8.4274    9.5785   15.5747 H       1  UNL1        0.0271
     35 C          -7.2331    7.9825   14.7395 C.3     1  UNL1       -0.0202
     36 H          -6.8007    7.6818   15.7043 H       1  UNL1        0.0349
     37 C          -5.3458   10.1412   15.3840 C.3     1  UNL1       -0.0287
     38 H          -5.8844   11.0887   15.4729 H       1  UNL1        0.0316
     39 H          -5.4422    9.5841   16.3206 H       1  UNL1        0.0316
     40 C          -3.8717   10.2750   14.9868 C.3     1  UNL1       -0.0336
     41 H          -3.7300   11.1858   14.3857 H       1  UNL1        0.0307
     42 C          -2.8980   10.2906   16.1546 C.3     1  UNL1       -0.0457
     43 H          -2.9852   11.2251   16.7239 H       1  UNL1        0.0271
     44 H          -3.1277    9.4628   16.8302 H       1  UNL1        0.0271
     45 C          -1.4781   10.1320   15.6144 C.3     1  UNL1       -0.0315
     46 H          -0.7326   10.1039   16.4123 H       1  UNL1        0.0313
     47 H          -1.2522   10.9728   14.9499 H       1  UNL1        0.0313
     48 C          -1.1258    7.3511   17.1277 C.3     1  UNL1       -0.0463
     49 H          -2.2024    7.1784   17.1461 H       1  UNL1        0.0271
     50 H          -0.9231    8.3228   17.5820 H       1  UNL1        0.0271
     51 C          -0.4306    6.2654   17.9458 C.3     1  UNL1       -0.0525
     52 H           0.6490    6.4448   17.9523 H       1  UNL1        0.0265
     53 H          -0.7819    6.3074   18.9793 H       1  UNL1        0.0265
     54 C          -0.7133    4.8882   17.3563 C.3     1  UNL1       -0.0530
     55 H          -0.2122    4.1154   17.9441 H       1  UNL1        0.0265
     56 H          -1.7878    4.6984   17.3914 H       1  UNL1        0.0265
     57 C          -0.2434    4.8354   15.9072 C.3     1  UNL1       -0.0525
     58 H          -0.4700    3.8579   15.4748 H       1  UNL1        0.0265
     59 H           0.8415    4.9738   15.8700 H       1  UNL1        0.0265
     60 C          -0.9261    5.9290   15.0926 C.3     1  UNL1       -0.0463
     61 H          -2.0075    5.7683   15.1075 H       1  UNL1        0.0271
     62 H          -0.5886    5.8767   14.0539 H       1  UNL1        0.0271
     63 C          -0.6398    7.3134   15.6790 C.3     1  UNL1       -0.0202
     64 H           0.4422    7.5021   15.6657 H       1  UNL1        0.0349
     65 C           1.2564    9.5333   14.0477 C.3     1  UNL1       -0.0463
     66 H           1.7631    8.6952   14.5296 H       1  UNL1        0.0271
     67 H           1.0696   10.2963   14.8045 H       1  UNL1        0.0271
     68 C           2.1755   10.1001   12.9656 C.3     1  UNL1       -0.0525
     69 H           1.6969   10.9653   12.5000 H       1  UNL1        0.0265
     70 H           3.1109   10.4397   13.4164 H       1  UNL1        0.0265
     71 C           2.4675    9.0467   11.9009 C.3     1  UNL1       -0.0530
     72 H           3.1030    9.4716   11.1209 H       1  UNL1        0.0265
     73 H           3.0109    8.2157   12.3572 H       1  UNL1        0.0265
     74 C           1.1704    8.5241   11.2900 C.3     1  UNL1       -0.0525
     75 H           1.3928    7.7369   10.5658 H       1  UNL1        0.0265
     76 H           0.6628    9.3308   10.7565 H       1  UNL1        0.0265
     77 C           0.2486    7.9831   12.3797 C.3     1  UNL1       -0.0463
     78 H          -0.6868    7.6386   11.9303 H       1  UNL1        0.0271
     79 H           0.7363    7.1355   12.8663 H       1  UNL1        0.0271
     80 C          -0.0512    9.0674   13.4108 C.3     1  UNL1       -0.0202
     81 H          -0.4900    9.9208   12.8716 H       1  UNL1        0.0349
@<TRIPOS>BOND
     1     8     6    1
     2    11     9    1
     3     7     6    1
     4     6     9    1
     5     6     3    1
     6    75    74    1
     7    76    74    1
     8     9    10    1
     9     9    12    1
    10    72    71    1
    11     5     3    1
    12    74    71    1
    13    74    77    1
    14     3     4    1
    15     3    18    1
    16    14    12    1
    17    71    73    1
    18    71    68    1
    19    78    77    1
    20    12    13    1
    21    12    15    1
    22    77    79    1
    23    77    80    1
    24    19    18    1
    25    69    68    1
    26    18    15    1
    27    18     1    1
    28    81    80    1
    29    22    20    1
    30    68    70    1
    31    68    65    1
    32    15    17    1
    33    15    16    1
    34    80    65    1
    35    80     2    1
    36    21    20    1
    37    20    23    1
    38    20    35    1
    39     1    35    1
    40     1    37    1
    41    27    26    1
    42    65    66    1
    43    65    67    1
    44    24    23    1
    45    62    60    1
    46    33    32    1
    47    41    40    1
    48     2    45    1
    49     2    63    1
    50    23    26    1
    51    23    25    1
    52    35    32    1
    53    35    36    1
    54    47    45    1
    55    26    28    1
    56    26    29    1
    57    40    37    1
    58    40    42    1
    59    32    34    1
    60    32    29    1
    61    60    61    1
    62    60    63    1
    63    60    57    1
    64    37    38    1
    65    37    39    1
    66    58    57    1
    67    45    42    1
    68    45    46    1
    69    64    63    1
    70    63    48    1
    71    29    31    1
    72    29    30    1
    73    59    57    1
    74    57    54    1
    75    42    43    1
    76    42    44    1
    77    48    49    1
    78    48    50    1
    79    48    51    1
    80    54    56    1
    81    54    55    1
    82    54    51    1
    83    51    52    1
    84    51    53    1
