@<TRIPOS>MOLECULE
1,2,10
 43 45 0 0 0
SMALL
GASTEIGER

@<TRIPOS>ATOM
      1 SI          1.5254    4.3167    5.7693 Si      1  UNL1        0.0000
      2 C           2.2170    5.6950    4.6222 C.ar    1  UNL1        0.0000
      3 C           1.6104    6.9512    4.4799 C.ar    1  UNL1        0.0000
      4 H           0.8657    7.2538    5.2020 H       1  UNL1        0.0000
      5 C           1.9762    7.8164    3.4763 C.ar    1  UNL1        0.0000
      6 H           1.5113    8.7893    3.4033 H       1  UNL1        0.0000
      7 C           2.9410    7.4533    2.5298 C.ar    1  UNL1        0.0000
      8 C           3.5571    6.2227    2.6559 C.ar    1  UNL1        0.0000
      9 H           4.3357    5.9457    1.9568 H       1  UNL1        0.0000
     10 C           3.1954    5.3388    3.6740 C.ar    1  UNL1        0.0000
     11 H           3.8201    4.4705    3.8573 H       1  UNL1        0.0000
     12 C           3.2879    8.3937    1.4181 C.3     1  UNL1        0.0000
     13 H           4.1558    8.0449    0.8634 H       1  UNL1        0.0000
     14 H           3.4946    9.3891    1.8077 H       1  UNL1        0.0000
     15 H           2.4466    8.4746    0.7298 H       1  UNL1        0.0000
     16 C           2.9593    3.5508    6.7655 C.ar    1  UNL1        0.0000
     17 C           4.2561    4.0539    6.7486 C.ar    1  UNL1        0.0000
     18 H           4.4722    4.9430    6.1739 H       1  UNL1        0.0000
     19 C           5.2714    3.4441    7.4635 C.ar    1  UNL1        0.0000
     20 H           6.2709    3.8565    7.4324 H       1  UNL1        0.0000
     21 C           5.0253    2.3092    8.2247 C.ar    1  UNL1        0.0000
     22 C           3.7277    1.8100    8.2613 C.ar    1  UNL1        0.0000
     23 H           3.5121    0.9337    8.8576 H       1  UNL1        0.0000
     24 C           2.7172    2.4222    7.5455 C.ar    1  UNL1        0.0000
     25 H           1.7124    2.0267    7.5950 H       1  UNL1        0.0000
     26 C           6.1168    1.6513    9.0127 C.3     1  UNL1        0.0000
     27 H           7.0962    1.9381    8.6371 H       1  UNL1        0.0000
     28 H           6.0251    0.5676    8.9709 H       1  UNL1        0.0000
     29 H           6.0530    1.9511   10.0594 H       1  UNL1        0.0000
     30 C           0.3880    5.1158    7.0713 C.ar    1  UNL1        0.0000
     31 C           0.6735    5.0447    8.4313 C.ar    1  UNL1        0.0000
     32 H           1.5642    4.5295    8.7607 H       1  UNL1        0.0000
     33 C          -0.1586    5.6230    9.3719 C.ar    1  UNL1        0.0000
     34 H           0.0900    5.5516   10.4221 H       1  UNL1        0.0000
     35 C          -1.3101    6.2949    8.9853 C.ar    1  UNL1        0.0000
     36 C          -1.6038    6.3679    7.6282 C.ar    1  UNL1        0.0000
     37 H          -2.4979    6.8831    7.3055 H       1  UNL1        0.0000
     38 C          -0.7728    5.7863    6.6911 C.ar    1  UNL1        0.0000
     39 H          -1.0310    5.8476    5.6443 H       1  UNL1        0.0000
     40 C          -2.2083    6.9414    9.9956 C.3     1  UNL1        0.0000
     41 H          -2.0308    6.5381   10.9898 H       1  UNL1        0.0000
     42 H          -3.2538    6.7907    9.7340 H       1  UNL1        0.0000
     43 H          -2.0235    8.0159   10.0259 H       1  UNL1        0.0000
@<TRIPOS>BOND
     1    15    12    1
     2    13    12    1
     3    12    14    1
     4    12     7    1
     5     9     8    1
     6     7     8   ar
     7     7     5   ar
     8     8    10   ar
     9     6     5    1
    10     5     3   ar
    11    10    11    1
    12    10     2   ar
    13     3     2   ar
    14     3     4    1
    15     2     1    1
    16    39    38    1
    17     1    16    1
    18     1    30    1
    19    18    17    1
    20    38    30   ar
    21    38    36   ar
    22    17    16   ar
    23    17    19   ar
    24    16    24   ar
    25    30    31   ar
    26    37    36    1
    27    20    19    1
    28    19    21   ar
    29    24    25    1
    30    24    22   ar
    31    36    35   ar
    32    21    22   ar
    33    21    26    1
    34    22    23    1
    35    31    32    1
    36    31    33   ar
    37    27    26    1
    38    28    26    1
    39    35    33   ar
    40    35    40    1
    41    26    29    1
    42    33    34    1
    43    42    40    1
    44    40    43    1
    45    40    41    1
