@<TRIPOS>MOLECULE
1,6,7
 104 110 0 0 0
SMALL
GASTEIGER

@<TRIPOS>ATOM
      1 SI          3.6446    9.4197    0.9304 Si      1  UNL1        0.0000
      2 N           0.7935    8.6447    2.6488 N.pl3   1  UNL1        0.0000
      3 N           0.6739   10.6326    3.4382 N.pl3   1  UNL1        0.0000
      4 N           6.1415    8.9067    3.1456 N.pl3   1  UNL1        0.0000
      5 N           6.2398   11.0478    3.0477 N.pl3   1  UNL1        0.0000
      6 C           1.5552    9.6832    3.0449 C.3     1  UNL1        0.0000
      7 C           5.3693   10.0093    3.0983 C.3     1  UNL1        0.0000
      8 C          -0.5401    8.9416    2.7829 C.2     1  UNL1        0.0000
      9 H          -1.3075    8.2498    2.5014 H       1  UNL1        0.0000
     10 C          -0.6164   10.1954    3.2767 C.2     1  UNL1        0.0000
     11 H          -1.4599   10.8095    3.5186 H       1  UNL1        0.0000
     12 C           0.9921   11.9354    3.9035 C.ar    1  UNL1        0.0000
     13 C           1.0235   12.1897    5.2758 C.ar    1  UNL1        0.0000
     14 C           1.2967   13.4813    5.6984 C.ar    1  UNL1        0.0000
     15 H           1.3228   13.6933    6.7580 H       1  UNL1        0.0000
     16 C           1.5287   14.5088    4.7938 C.ar    1  UNL1        0.0000
     17 C           1.4687   14.2312    3.4368 C.ar    1  UNL1        0.0000
     18 H           1.6299   15.0249    2.7219 H       1  UNL1        0.0000
     19 C           1.1877   12.9551    2.9723 C.ar    1  UNL1        0.0000
     20 C           1.0298   12.6806    1.5091 C.3     1  UNL1        0.0000
     21 H           1.5708   11.7819    1.2205 H       1  UNL1        0.0000
     22 H           1.3978   13.5139    0.9176 H       1  UNL1        0.0000
     23 H          -0.0248   12.5297    1.2717 H       1  UNL1        0.0000
     24 C           1.7963   15.8994    5.2866 C.3     1  UNL1        0.0000
     25 H           2.5083   15.8887    6.1102 H       1  UNL1        0.0000
     26 H           0.8733   16.3482    5.6548 H       1  UNL1        0.0000
     27 H           2.1846   16.5283    4.4893 H       1  UNL1        0.0000
     28 C           0.7448   11.0982    6.2625 C.3     1  UNL1        0.0000
     29 H          -0.2442   10.6722    6.0950 H       1  UNL1        0.0000
     30 H           0.7903   11.4802    7.2787 H       1  UNL1        0.0000
     31 H           1.4703   10.2932    6.1634 H       1  UNL1        0.0000
     32 C           1.2101    7.4080    2.0882 C.ar    1  UNL1        0.0000
     33 C           1.7022    7.3773    0.7799 C.ar    1  UNL1        0.0000
     34 C           1.8980    6.1331    0.1938 C.ar    1  UNL1        0.0000
     35 H           2.2532    6.0902   -0.8269 H       1  UNL1        0.0000
     36 C           1.6238    4.9534    0.8674 C.ar    1  UNL1        0.0000
     37 C           1.2069    5.0206    2.1890 C.ar    1  UNL1        0.0000
     38 H           1.0231    4.1083    2.7388 H       1  UNL1        0.0000
     39 C           0.9990    6.2394    2.8160 C.ar    1  UNL1        0.0000
     40 C           0.5768    6.3061    4.2535 C.3     1  UNL1        0.0000
     41 H           1.2463    6.9645    4.8064 H       1  UNL1        0.0000
     42 H           0.6116    5.3183    4.7056 H       1  UNL1        0.0000
     43 H          -0.4367    6.6943    4.3554 H       1  UNL1        0.0000
     44 C           1.7598    3.6333    0.1686 C.3     1  UNL1        0.0000
     45 H           1.8298    2.8169    0.8830 H       1  UNL1        0.0000
     46 H           2.6393    3.6194   -0.4723 H       1  UNL1        0.0000
     47 H           0.8877    3.4577   -0.4628 H       1  UNL1        0.0000
     48 C           2.0597    8.6226    0.0756 C.3     1  UNL1        0.0000
     49 H           1.2561    9.3557    0.1376 H       1  UNL1        0.0000
     50 H           2.2500    8.4277   -0.9775 H       1  UNL1        0.0000
     51 C           7.4716    9.2358    3.1490 C.2     1  UNL1        0.0000
     52 H           8.2458    8.4963    3.1809 H       1  UNL1        0.0000
     53 C           7.5345   10.5827    3.0885 C.2     1  UNL1        0.0000
     54 H           8.3755   11.2444    3.0936 H       1  UNL1        0.0000
     55 C           5.9406   12.4140    2.8245 C.ar    1  UNL1        0.0000
     56 C           5.1870   13.1338    3.7538 C.ar    1  UNL1        0.0000
     57 C           4.9402   14.4763    3.5162 C.ar    1  UNL1        0.0000
     58 H           4.3585   15.0334    4.2344 H       1  UNL1        0.0000
     59 C           5.4278   15.1172    2.3875 C.ar    1  UNL1        0.0000
     60 C           6.1760   14.3826    1.4811 C.ar    1  UNL1        0.0000
     61 H           6.5607   14.8643    0.5936 H       1  UNL1        0.0000
     62 C           6.4387   13.0343    1.6751 C.ar    1  UNL1        0.0000
     63 C           7.2289   12.2867    0.6418 C.3     1  UNL1        0.0000
     64 H           8.2926   12.2945    0.8816 H       1  UNL1        0.0000
     65 H           7.1015   12.7556   -0.3308 H       1  UNL1        0.0000
     66 H           6.8985   11.2536    0.5639 H       1  UNL1        0.0000
     67 C           5.1265   16.5654    2.1441 C.3     1  UNL1        0.0000
     68 H           5.1090   17.1198    3.0800 H       1  UNL1        0.0000
     69 H           4.1474   16.6675    1.6745 H       1  UNL1        0.0000
     70 H           5.8652   17.0117    1.4827 H       1  UNL1        0.0000
     71 C           4.6439   12.4714    4.9763 C.3     1  UNL1        0.0000
     72 H           3.8121   11.8207    4.6875 H       1  UNL1        0.0000
     73 H           4.2735   13.2068    5.6847 H       1  UNL1        0.0000
     74 H           5.3988   11.8545    5.4605 H       1  UNL1        0.0000
     75 C           5.6498    7.5782    3.0635 C.ar    1  UNL1        0.0000
     76 C           5.7554    6.7324    4.1668 C.ar    1  UNL1        0.0000
     77 C           5.3477    5.4153    4.0280 C.ar    1  UNL1        0.0000
     78 H           5.4198    4.7498    4.8764 H       1  UNL1        0.0000
     79 C           4.8665    4.9322    2.8196 C.ar    1  UNL1        0.0000
     80 C           4.7693    5.7974    1.7429 C.ar    1  UNL1        0.0000
     81 H           4.4059    5.4253    0.7971 H       1  UNL1        0.0000
     82 C           5.1476    7.1309    1.8348 C.ar    1  UNL1        0.0000
     83 C           5.0340    8.0445    0.6720 C.3     1  UNL1        0.0000
     84 H           4.8343    7.4635   -0.2260 H       1  UNL1        0.0000
     85 H           5.9742    8.5781    0.5231 H       1  UNL1        0.0000
     86 C           4.4660    3.4936    2.6949 C.3     1  UNL1        0.0000
     87 H           5.1585    2.8523    3.2371 H       1  UNL1        0.0000
     88 H           4.4411    3.1865    1.6529 H       1  UNL1        0.0000
     89 H           3.4727    3.3497    3.1183 H       1  UNL1        0.0000
     90 C           6.2591    7.2296    5.4888 C.3     1  UNL1        0.0000
     91 H           7.0998    7.9106    5.3757 H       1  UNL1        0.0000
     92 H           6.5635    6.3964    6.1173 H       1  UNL1        0.0000
     93 H           5.4580    7.7661    5.9993 H       1  UNL1        0.0000
     94 C           4.1090   10.7105   -0.4187 C.ar    1  UNL1        0.0000
     95 C           4.4831   10.3306   -1.7024 C.ar    1  UNL1        0.0000
     96 H           4.5527    9.2799   -1.9467 H       1  UNL1        0.0000
     97 C           4.7732   11.2687   -2.6764 C.ar    1  UNL1        0.0000
     98 H           5.0658   10.9490   -3.6677 H       1  UNL1        0.0000
     99 C           4.6841   12.6199   -2.3854 C.ar    1  UNL1        0.0000
    100 H           4.9018   13.3556   -3.1476 H       1  UNL1        0.0000
    101 C           4.3185   13.0184   -1.1116 C.ar    1  UNL1        0.0000
    102 H           4.2526   14.0708   -0.8703 H       1  UNL1        0.0000
    103 C           4.0438   12.0698   -0.1426 C.ar    1  UNL1        0.0000
    104 H           3.7868   12.3915    0.8561 H       1  UNL1        0.0000
@<TRIPOS>BOND
     1    98    97    1
     2   100    99    1
     3    97    99   ar
     4    97    95   ar
     5    99   101   ar
     6    96    95    1
     7    95    94   ar
     8   101   102    1
     9   101   103   ar
    10    50    48    1
    11    35    34    1
    12    46    44    1
    13    47    44    1
    14    94   103   ar
    15    94     1    1
    16    65    63    1
    17    84    83    1
    18   103   104    1
    19    48    49    1
    20    48    33    1
    21    48     1    1
    22    44    36    1
    23    44    45    1
    24    34    33   ar
    25    34    36   ar
    26    85    83    1
    27    66    63    1
    28    61    60    1
    29    63    64    1
    30    63    62    1
    31    83     1    1
    32    83    82    1
    33    33    32   ar
    34    81    80    1
    35    36    37   ar
    36    22    20    1
    37    21    20    1
    38    23    20    1
    39    60    62   ar
    40    60    59   ar
    41    70    67    1
    42    20    19    1
    43    88    86    1
    44    69    67    1
    45    62    55   ar
    46    80    82   ar
    47    80    79   ar
    48    82    75   ar
    49    32     2    1
    50    32    39   ar
    51    67    59    1
    52    67    68    1
    53    37    38    1
    54    37    39   ar
    55    59    57   ar
    56     9     8    1
    57     2     8    1
    58     2     6    1
    59    86    79    1
    60    86    89    1
    61    86    87    1
    62    18    17    1
    63     8    10    2
    64    39    40    1
    65    79    77   ar
    66    55     5    1
    67    55    56   ar
    68    19    17   ar
    69    19    12   ar
    70     6     3    1
    71     5    53    1
    72     5     7    1
    73    75     4    1
    74    75    76   ar
    75    53    54    1
    76    53    51    2
    77     7     4    1
    78     4    51    1
    79    51    52    1
    80    10     3    1
    81    10    11    1
    82    17    16   ar
    83     3    12    1
    84    57    56   ar
    85    57    58    1
    86    56    71    1
    87    12    13   ar
    88    77    76   ar
    89    77    78    1
    90    76    90    1
    91    40    43    1
    92    40    42    1
    93    40    41    1
    94    27    24    1
    95    72    71    1
    96    16    24    1
    97    16    14   ar
    98    71    74    1
    99    71    73    1
   100    13    14   ar
   101    13    28    1
   102    24    26    1
   103    24    25    1
   104    91    90    1
   105    90    93    1
   106    90    92    1
   107    14    15    1
   108    29    28    1
   109    31    28    1
   110    28    30    1
