@<TRIPOS>MOLECULE
1,2,10
 43 45 0 0 0
SMALL
GASTEIGER

@<TRIPOS>ATOM
      1 SI          1.5306    4.3645    5.7503 Si      1  UNL1        0.0000
      2 C           2.1920    5.7168    4.5775 C.ar    1  UNL1        0.0000
      3 C           1.5782    6.9690    4.4244 C.ar    1  UNL1        0.0000
      4 H           0.8357    7.2765    5.1482 H       1  UNL1        0.0000
      5 C           1.9374    7.8269    3.4134 C.ar    1  UNL1        0.0000
      6 H           1.4695    8.7980    3.3339 H       1  UNL1        0.0000
      7 C           2.9017    7.4582    2.4667 C.ar    1  UNL1        0.0000
      8 C           3.5234    6.2333    2.6046 C.ar    1  UNL1        0.0000
      9 H           4.3034    5.9523    1.9084 H       1  UNL1        0.0000
     10 C           3.1688    5.3580    3.6341 C.ar    1  UNL1        0.0000
     11 H           3.8066    4.5034    3.8331 H       1  UNL1        0.0000
     12 C           3.2427    8.3907    1.3466 C.3     1  UNL1        0.0000
     13 H           2.3975    8.4682    0.6627 H       1  UNL1        0.0000
     14 H           4.1070    8.0371    0.7894 H       1  UNL1        0.0000
     15 H           3.4530    9.3884    1.7286 H       1  UNL1        0.0000
     16 C           2.9632    3.5924    6.7333 C.ar    1  UNL1        0.0000
     17 C           4.2582    4.0987    6.7157 C.ar    1  UNL1        0.0000
     18 H           4.4712    4.9907    6.1437 H       1  UNL1        0.0000
     19 C           5.2755    3.4901    7.4288 C.ar    1  UNL1        0.0000
     20 H           6.2739    3.9052    7.3978 H       1  UNL1        0.0000
     21 C           5.0324    2.3540    8.1889 C.ar    1  UNL1        0.0000
     22 C           3.7362    1.8511    8.2251 C.ar    1  UNL1        0.0000
     23 H           3.5233    0.9734    8.8204 H       1  UNL1        0.0000
     24 C           2.7241    2.4616    7.5105 C.ar    1  UNL1        0.0000
     25 H           1.7202    2.0632    7.5590 H       1  UNL1        0.0000
     26 C           6.1253    1.6980    8.9766 C.3     1  UNL1        0.0000
     27 H           7.1042    1.9993    8.6112 H       1  UNL1        0.0000
     28 H           6.0451    0.6140    8.9208 H       1  UNL1        0.0000
     29 H           6.0512    1.9841   10.0264 H       1  UNL1        0.0000
     30 C           0.3963    5.1508    7.0573 C.ar    1  UNL1        0.0000
     31 C           0.6862    5.0658    8.4162 C.ar    1  UNL1        0.0000
     32 H           1.5782    4.5475    8.7371 H       1  UNL1        0.0000
     33 C          -0.1405    5.6363    9.3656 C.ar    1  UNL1        0.0000
     34 H           0.1128    5.5558   10.4140 H       1  UNL1        0.0000
     35 C          -1.2920    6.3157    8.9903 C.ar    1  UNL1        0.0000
     36 C          -1.5899    6.4033    7.6357 C.ar    1  UNL1        0.0000
     37 H          -2.4825    6.9257    7.3204 H       1  UNL1        0.0000
     38 C          -0.7633    5.8296    6.6892 C.ar    1  UNL1        0.0000
     39 H          -1.0272    5.9069    5.6442 H       1  UNL1        0.0000
     40 C          -2.2033    6.9165   10.0168 C.3     1  UNL1        0.0000
     41 H          -1.6591    7.1565   10.9276 H       1  UNL1        0.0000
     42 H          -2.9935    6.2090   10.2714 H       1  UNL1        0.0000
     43 H          -2.6738    7.8204    9.6360 H       1  UNL1        0.0000
@<TRIPOS>BOND
     1    13    12    1
     2    14    12    1
     3    12    15    1
     4    12     7    1
     5     9     8    1
     6     7     8   ar
     7     7     5   ar
     8     8    10   ar
     9     6     5    1
    10     5     3   ar
    11    10    11    1
    12    10     2   ar
    13     3     2   ar
    14     3     4    1
    15     2     1    1
    16    39    38    1
    17     1    16    1
    18     1    30    1
    19    18    17    1
    20    38    30   ar
    21    38    36   ar
    22    17    16   ar
    23    17    19   ar
    24    16    24   ar
    25    30    31   ar
    26    37    36    1
    27    20    19    1
    28    19    21   ar
    29    24    25    1
    30    24    22   ar
    31    36    35   ar
    32    21    22   ar
    33    21    26    1
    34    22    23    1
    35    31    32    1
    36    31    33   ar
    37    27    26    1
    38    28    26    1
    39    26    29    1
    40    35    33   ar
    41    35    40    1
    42    33    34    1
    43    43    40    1
    44    40    42    1
    45    40    41    1
