@<TRIPOS>MOLECULE
1,2,3
 20 19 0 0 0
SMALL
GASTEIGER

@<TRIPOS>ATOM
      1 SI          5.6126    1.2013   12.1674 Si      1  UNL1        0.0000
      2 C           3.7916    1.4370   12.5811 C.3     1  UNL1        0.0000
      3 C           3.3637    2.5169   13.3669 C.3     1  UNL1        0.0000
      4 C           4.0780    2.8205   14.6688 C.3     1  UNL1        0.0000
      5 C           1.8768    2.7877   13.4534 C.3     1  UNL1        0.0000
      6 C           6.8991    1.0868   13.5958 C.3     1  UNL1        0.0000
      7 C           5.8331   -0.4823   11.2646 C.3     1  UNL1        0.0000
      8 H           3.0262    0.9071   12.0150 H       1  UNL1        0.0000
      9 H           3.8513    2.0278   15.3841 H       1  UNL1        0.0000
     10 H           3.7329    3.7602   15.0950 H       1  UNL1        0.0000
     11 H           5.1547    2.8715   14.5416 H       1  UNL1        0.0000
     12 H           1.3736    2.5638   12.5148 H       1  UNL1        0.0000
     13 H           1.4363    2.1617   14.2323 H       1  UNL1        0.0000
     14 H           1.6812    3.8256   13.7185 H       1  UNL1        0.0000
     15 H           7.2168    2.0634   13.9441 H       1  UNL1        0.0000
     16 H           6.5007    0.5388   14.4440 H       1  UNL1        0.0000
     17 H           7.7832    0.5612   13.2491 H       1  UNL1        0.0000
     18 H           6.6632   -0.4447   10.5670 H       1  UNL1        0.0000
     19 H           6.0567   -1.2585   11.9894 H       1  UNL1        0.0000
     20 H           4.9498   -0.7880   10.7176 H       1  UNL1        0.0000
@<TRIPOS>BOND
     1    18     7    1
     2    20     7    1
     3     7    19    1
     4     7     1    1
     5     8     2    1
     6     1     2    1
     7     1     6    1
     8    12     5    1
     9     2     3    1
    10    17     6    1
    11     3     5    1
    12     3     4    1
    13     5    14    1
    14     5    13    1
    15     6    15    1
    16     6    16    1
    17    11     4    1
    18     4    10    1
    19     4     9    1
