@<TRIPOS>MOLECULE
1,2,5
 18 17 0 0 0
SMALL
GASTEIGER

@<TRIPOS>ATOM
      1 SI         13.6752    3.0528   13.2627 Si      1  UNL1        0.0000
      2 C          11.4855    2.9548   15.3462 C.3     1  UNL1        0.0000
      3 H          10.5900    2.6864   15.9069 H       1  UNL1        0.0000
      4 H          12.3662    2.4817   15.7680 H       1  UNL1        0.0000
      5 C          11.6172    4.3411   14.9617 C.3     1  UNL1        0.0000
      6 H          10.7982    5.0047   15.2466 H       1  UNL1        0.0000
      7 C          12.9365    4.9793   15.0824 C.2     1  UNL1        0.0000
      8 H          12.9873    5.8472   15.7368 H       1  UNL1        0.0000
      9 C          14.0066    4.5018   14.4548 C.2     1  UNL1        0.0000
     10 H          14.9813    4.9414   14.6195 H       1  UNL1        0.0000
     11 C          14.6011    1.5270   14.0320 C.3     1  UNL1        0.0000
     12 H          15.5758    1.8364   14.3957 H       1  UNL1        0.0000
     13 H          14.7617    0.7414   13.3002 H       1  UNL1        0.0000
     14 H          14.0615    1.0964   14.8679 H       1  UNL1        0.0000
     15 C          14.8714    3.4167   11.7761 C.3     1  UNL1        0.0000
     16 H          15.8966    3.3906   12.1302 H       1  UNL1        0.0000
     17 H          14.7053    4.3916   11.3315 H       1  UNL1        0.0000
     18 H          14.7815    2.6725   10.9922 H       1  UNL1        0.0000
@<TRIPOS>BOND
     1    18    15    1
     2    17    15    1
     3    15    16    1
     4    15     1    1
     5     1    11    1
     6     1     9    1
     7    13    11    1
     8    11    12    1
     9    11    14    1
    10     9    10    1
    11     9     7    2
    12     5     7    1
    13     5     6    1
    14     5     2    1
    15     7     8    1
    16     2     4    1
    17     2     3    1
