@<TRIPOS>MOLECULE
1,2,3
 35 36 0 0 0
SMALL
GASTEIGER

@<TRIPOS>ATOM
      1 SI          5.5567   17.1981   14.6484 Si      1  UNL1        0.0000
      2 C           4.5253   16.8768   13.1320 C.2     1  UNL1        0.0000
      3 C           4.1798   15.9061   12.4320 C.2     1  UNL1        0.0000
      4 C           3.6084   15.5013   11.1338 C.3     1  UNL1        0.0000
      5 C           4.1629   14.1608   10.6527 C.3     1  UNL1        0.0000
      6 C           3.8994   16.6001   10.1049 C.3     1  UNL1        0.0000
      7 C           4.7866   18.3831   15.9021 C.ar    1  UNL1        0.0000
      8 C           3.7056   19.1950   15.5777 C.ar    1  UNL1        0.0000
      9 C           3.1542   20.0516   16.5139 C.ar    1  UNL1        0.0000
     10 C           3.6786   20.1105   17.7944 C.ar    1  UNL1        0.0000
     11 C           4.7593   19.3121   18.1313 C.ar    1  UNL1        0.0000
     12 C           5.3056   18.4571   17.1911 C.ar    1  UNL1        0.0000
     13 C           7.2203   17.9088   14.0827 C.ar    1  UNL1        0.0000
     14 C           7.8199   18.9933   14.7130 C.ar    1  UNL1        0.0000
     15 C           9.0548   19.4614   14.2997 C.ar    1  UNL1        0.0000
     16 C           9.7093   18.8498   13.2447 C.ar    1  UNL1        0.0000
     17 C           9.1224   17.7697   12.6043 C.ar    1  UNL1        0.0000
     18 C           7.8904   17.3041   13.0220 C.ar    1  UNL1        0.0000
     19 H           2.5197   15.4089   11.2425 H       1  UNL1        0.0000
     20 H           4.0225   13.3873   11.4046 H       1  UNL1        0.0000
     21 H           3.6577   13.8547    9.7386 H       1  UNL1        0.0000
     22 H           5.2271   14.2454   10.4463 H       1  UNL1        0.0000
     23 H           3.4757   16.3312    9.1395 H       1  UNL1        0.0000
     24 H           4.9734   16.7306    9.9934 H       1  UNL1        0.0000
     25 H           3.4722   17.5469   10.4264 H       1  UNL1        0.0000
     26 H           3.2963   19.1541   14.5788 H       1  UNL1        0.0000
     27 H           2.3141   20.6764   16.2457 H       1  UNL1        0.0000
     28 H           3.2490   20.7784   18.5270 H       1  UNL1        0.0000
     29 H           5.1750   19.3564   19.1281 H       1  UNL1        0.0000
     30 H           6.1497   17.8361   17.4577 H       1  UNL1        0.0000
     31 H           7.3133   19.4777   15.5362 H       1  UNL1        0.0000
     32 H           9.5077   20.3044   14.8021 H       1  UNL1        0.0000
     33 H          10.6744   19.2125   12.9217 H       1  UNL1        0.0000
     34 H           9.6304   17.2886   11.7811 H       1  UNL1        0.0000
     35 H           7.4334   16.4563   12.5240 H       1  UNL1        0.0000
@<TRIPOS>BOND
     1    23     6    1
     2    21     5    1
     3    24     6    1
     4     6    25    1
     5     6     4    1
     6    22     5    1
     7     5     4    1
     8     5    20    1
     9     4    19    1
    10     4     3    1
    11    34    17    1
    12     3     2    2
    13    35    18    1
    14    17    18   ar
    15    17    16   ar
    16    33    16    1
    17    18    13   ar
    18     2     1    1
    19    16    15   ar
    20    13     1    1
    21    13    14   ar
    22    15    14   ar
    23    15    32    1
    24    26     8    1
    25     1     7    1
    26    14    31    1
    27     8     7   ar
    28     8     9   ar
    29     7    12   ar
    30    27     9    1
    31     9    10   ar
    32    12    30    1
    33    12    11   ar
    34    10    11   ar
    35    10    28    1
    36    11    29    1
