@<TRIPOS>MOLECULE
1,2,3
 38 39 0 0 0
SMALL
GASTEIGER

@<TRIPOS>ATOM
      1 SI          3.6538    4.8136    1.8329 Si      1  UNL1        0.0000
      2 C           4.6339    5.2171    0.3001 C.3     1  UNL1        0.0000
      3 C           4.8135    6.2303   -0.4064 C.3     1  UNL1        0.0000
      4 C           5.0678    6.6753   -1.7945 C.3     1  UNL1        0.0000
      5 C           5.5321    8.1292   -1.8804 C.3     1  UNL1        0.0000
      6 C           6.1270    5.7539   -2.4178 C.3     1  UNL1        0.0000
      7 C           3.7416    6.5184   -2.5572 C.3     1  UNL1        0.0000
      8 C           1.9680    4.1698    1.2458 C.ar    1  UNL1        0.0000
      9 C           1.2713    4.8752    0.2677 C.ar    1  UNL1        0.0000
     10 C           0.0308    4.4488   -0.1663 C.ar    1  UNL1        0.0000
     11 C          -0.5393    3.3075    0.3754 C.ar    1  UNL1        0.0000
     12 C           0.1398    2.5973    1.3500 C.ar    1  UNL1        0.0000
     13 C           1.3833    3.0264    1.7794 C.ar    1  UNL1        0.0000
     14 C           4.3960    3.5125    2.9843 C.ar    1  UNL1        0.0000
     15 C           5.4043    2.6506    2.5685 C.ar    1  UNL1        0.0000
     16 C           5.9320    1.7069    3.4315 C.ar    1  UNL1        0.0000
     17 C           5.4555    1.6091    4.7283 C.ar    1  UNL1        0.0000
     18 C           4.4450    2.4553    5.1546 C.ar    1  UNL1        0.0000
     19 C           3.9219    3.3971    4.2871 C.ar    1  UNL1        0.0000
     20 H           6.5131    8.2461   -1.4285 H       1  UNL1        0.0000
     21 H           4.8288    8.7873   -1.3761 H       1  UNL1        0.0000
     22 H           5.6002    8.4331   -2.9232 H       1  UNL1        0.0000
     23 H           7.0749    5.8393   -1.8900 H       1  UNL1        0.0000
     24 H           6.2877    6.0256   -3.4590 H       1  UNL1        0.0000
     25 H           5.7993    4.7181   -2.3713 H       1  UNL1        0.0000
     26 H           3.8865    6.7657   -3.6069 H       1  UNL1        0.0000
     27 H           2.9844    7.1829   -2.1475 H       1  UNL1        0.0000
     28 H           3.3805    5.4947   -2.4828 H       1  UNL1        0.0000
     29 H           1.7142    5.7710   -0.1515 H       1  UNL1        0.0000
     30 H          -0.4971    5.0087   -0.9247 H       1  UNL1        0.0000
     31 H          -1.5115    2.9757    0.0407 H       1  UNL1        0.0000
     32 H          -0.3004    1.7073    1.7771 H       1  UNL1        0.0000
     33 H           1.9099    2.4633    2.5375 H       1  UNL1        0.0000
     34 H           5.7753    2.7217    1.5563 H       1  UNL1        0.0000
     35 H           6.7157    1.0439    3.0935 H       1  UNL1        0.0000
     36 H           5.8677    0.8740    5.4043 H       1  UNL1        0.0000
     37 H           4.0654    2.3796    6.1638 H       1  UNL1        0.0000
     38 H           3.1290    4.0522    4.6215 H       1  UNL1        0.0000
@<TRIPOS>BOND
     1    26     7    1
     2    24     6    1
     3    22     5    1
     4     7    28    1
     5     7    27    1
     6     7     4    1
     7     6    25    1
     8     6    23    1
     9     6     4    1
    10     5     4    1
    11     5    20    1
    12     5    21    1
    13     4     3    1
    14    30    10    1
    15     3     2    1
    16    10     9   ar
    17    10    11   ar
    18    29     9    1
    19    31    11    1
    20     9     8   ar
    21     2     1    1
    22    11    12   ar
    23     8    13   ar
    24     8     1    1
    25    12    32    1
    26    12    13   ar
    27    34    15    1
    28    13    33    1
    29     1    14    1
    30    15    14   ar
    31    15    16   ar
    32    14    19   ar
    33    35    16    1
    34    16    17   ar
    35    19    38    1
    36    19    18   ar
    37    17    18   ar
    38    17    36    1
    39    18    37    1
