@<TRIPOS>MOLECULE
1,2,3
 34 35 0 0 0
SMALL
GASTEIGER

@<TRIPOS>ATOM
      1 SI          1.9061    5.1730    1.1898 Si      1  UNL1        0.0000
      2 C           3.7575    5.4477    1.1434 C.3     1  UNL1        0.0000
      3 C           4.4980    5.5258    2.3209 C.3     1  UNL1        0.0000
      4 C           6.0052    5.5515    2.1944 C.3     1  UNL1        0.0000
      5 C           4.0126    6.3649    3.4827 C.3     1  UNL1        0.0000
      6 C           1.1440    5.2402   -0.5502 C.ar    1  UNL1        0.0000
      7 C           1.8535    5.6554   -1.6721 C.ar    1  UNL1        0.0000
      8 C           1.2600    5.6873   -2.9220 C.ar    1  UNL1        0.0000
      9 C          -0.0623    5.3062   -3.0722 C.ar    1  UNL1        0.0000
     10 C          -0.7895    4.9073   -1.9627 C.ar    1  UNL1        0.0000
     11 C          -0.1893    4.8784   -0.7178 C.ar    1  UNL1        0.0000
     12 C           0.8818    6.4748    2.1283 C.ar    1  UNL1        0.0000
     13 C           1.1846    7.8294    2.0180 C.ar    1  UNL1        0.0000
     14 C           0.4219    8.7846    2.6636 C.ar    1  UNL1        0.0000
     15 C          -0.6664    8.4009    3.4296 C.ar    1  UNL1        0.0000
     16 C          -0.9852    7.0588    3.5434 C.ar    1  UNL1        0.0000
     17 C          -0.2173    6.1070    2.8960 C.ar    1  UNL1        0.0000
     18 H           4.3228    5.3164    0.2234 H       1  UNL1        0.0000
     19 H           6.4868    5.2524    3.1236 H       1  UNL1        0.0000
     20 H           6.3318    6.5688    1.9688 H       1  UNL1        0.0000
     21 H           6.3503    4.8974    1.3960 H       1  UNL1        0.0000
     22 H           2.9432    6.2653    3.6523 H       1  UNL1        0.0000
     23 H           4.2270    7.4135    3.2648 H       1  UNL1        0.0000
     24 H           4.5382    6.1066    4.4009 H       1  UNL1        0.0000
     25 H           2.8808    5.9728   -1.5655 H       1  UNL1        0.0000
     26 H           1.8295    6.0129   -3.7814 H       1  UNL1        0.0000
     27 H          -0.5262    5.3272   -4.0477 H       1  UNL1        0.0000
     28 H          -1.8254    4.6192   -2.0709 H       1  UNL1        0.0000
     29 H          -0.7625    4.5715    0.1452 H       1  UNL1        0.0000
     30 H           2.0340    8.1320    1.4216 H       1  UNL1        0.0000
     31 H           0.6744    9.8313    2.5700 H       1  UNL1        0.0000
     32 H          -1.2632    9.1457    3.9360 H       1  UNL1        0.0000
     33 H          -1.8322    6.7531    4.1404 H       1  UNL1        0.0000
     34 H          -0.4693    5.0615    2.9979 H       1  UNL1        0.0000
@<TRIPOS>BOND
     1    27     9    1
     2    26     8    1
     3     9     8   ar
     4     9    10   ar
     5     8     7   ar
     6    28    10    1
     7    10    11   ar
     8     7    25    1
     9     7     6   ar
    10    11     6   ar
    11    11    29    1
    12     6     1    1
    13    18     2    1
    14     2     1    1
    15     2     3    1
    16     1    12    1
    17    21     4    1
    18    30    13    1
    19    20     4    1
    20    13    12   ar
    21    13    14   ar
    22    12    17   ar
    23     4     3    1
    24     4    19    1
    25     3     5    1
    26    31    14    1
    27    14    15   ar
    28    17    34    1
    29    17    16   ar
    30    23     5    1
    31    15    16   ar
    32    15    32    1
    33     5    22    1
    34     5    24    1
    35    16    33    1
