@<TRIPOS>MOLECULE
1,2,3,4,15
 93 98 0 0 0
SMALL
GASTEIGER

@<TRIPOS>ATOM
      1 P           8.5311    0.8636    5.2916 P.3     1  UNL1       -0.0122
      2 N           7.7501    3.9502    3.6336 N.pl3   1  UNL1       -0.2404
      3 N          10.4517    2.0781    3.6839 N.pl3   1  UNL1       -0.2460
      4 N           8.9477    3.3867    6.7965 N.pl3   1  UNL1       -0.2460
      5 C           7.1755    0.6340    4.1017 C.ar    1  UNL1       -0.0096
      6 C           6.8050   -0.5401    3.4599 C.ar    1  UNL1       -0.0532
      7 H           7.3339   -1.4631    3.6534 H       1  UNL1        0.0624
      8 C           5.7647   -0.5146    2.5457 C.ar    1  UNL1       -0.0611
      9 H           5.4733   -1.4230    2.0387 H       1  UNL1        0.0618
     10 C           5.1052    0.6732    2.2743 C.ar    1  UNL1       -0.0614
     11 H           4.2989    0.6868    1.5553 H       1  UNL1        0.0618
     12 C           5.4828    1.8479    2.9052 C.ar    1  UNL1       -0.0561
     13 H           4.9797    2.7752    2.6707 H       1  UNL1        0.0621
     14 C           6.5300    1.8472    3.8182 C.ar    1  UNL1       -0.0150
     15 C           7.0345    3.0971    4.4768 C.3     1  UNL1        0.0924
     16 H           6.2576    3.5803    5.0988 H       1  UNL1        0.0590
     17 C           7.2688    5.0304    2.9442 C.ar    1  UNL1        0.0490
     18 C           5.9730    5.5381    3.1110 C.ar    1  UNL1       -0.0362
     19 H           5.3027    5.0734    3.8210 H       1  UNL1        0.0639
     20 C           5.5425    6.6400    2.3916 C.ar    1  UNL1       -0.0484
     21 C           6.3990    7.2355    1.4747 C.ar    1  UNL1       -0.0558
     22 H           6.0595    8.0894    0.9057 H       1  UNL1        0.0623
     23 C           7.6830    6.7398    1.2734 C.ar    1  UNL1       -0.0484
     24 C           8.1093    5.6489    2.0064 C.ar    1  UNL1       -0.0362
     25 H           9.0981    5.2377    1.8541 H       1  UNL1        0.0639
     26 C           4.1558    7.1812    2.5860 C.3     1  UNL1       -0.0396
     27 H           3.5246    6.9143    1.7378 H       1  UNL1        0.0278
     28 H           4.1753    8.2672    2.6573 H       1  UNL1        0.0278
     29 H           3.7038    6.7787    3.4894 H       1  UNL1        0.0278
     30 C           8.5987    7.3889    0.2778 C.3     1  UNL1       -0.0396
     31 H           8.0511    7.6908   -0.6129 H       1  UNL1        0.0278
     32 H           9.3973    6.7091   -0.0090 H       1  UNL1        0.0278
     33 H           9.0500    8.2813    0.7122 H       1  UNL1        0.0278
     34 C           9.6361   -0.5532    4.9879 C.ar    1  UNL1       -0.0099
     35 C           9.2742   -1.8662    5.2745 C.ar    1  UNL1       -0.0532
     36 H           8.3333   -2.0652    5.7679 H       1  UNL1        0.0624
     37 C          10.1235   -2.9097    4.9546 C.ar    1  UNL1       -0.0611
     38 H           9.8368   -3.9274    5.1754 H       1  UNL1        0.0618
     39 C          11.3394   -2.6437    4.3480 C.ar    1  UNL1       -0.0614
     40 H          11.9992   -3.4553    4.0798 H       1  UNL1        0.0618
     41 C          11.7226   -1.3356    4.1042 C.ar    1  UNL1       -0.0564
     42 H          12.6885   -1.1370    3.6610 H       1  UNL1        0.0621
     43 C          10.8886   -0.2746    4.4295 C.ar    1  UNL1       -0.0202
     44 C          11.3936    1.1533    4.2783 C.3     1  UNL1        0.0570
     45 H          11.6575    1.5058    5.2927 H       1  UNL1        0.0531
     46 H          12.3247    1.1138    3.6995 H       1  UNL1        0.0531
     47 C          10.5832    2.3383    2.3258 C.ar    1  UNL1        0.0486
     48 C           9.4269    2.3874    1.5384 C.ar    1  UNL1       -0.0362
     49 H           8.4724    2.1349    1.9885 H       1  UNL1        0.0639
     50 C           9.4762    2.7464    0.2015 C.ar    1  UNL1       -0.0484
     51 C          10.7056    3.0267   -0.3787 C.ar    1  UNL1       -0.0558
     52 H          10.7560    3.3086   -1.4209 H       1  UNL1        0.0623
     53 C          11.8758    2.9509    0.3666 C.ar    1  UNL1       -0.0484
     54 C          11.8100    2.6088    1.7070 C.ar    1  UNL1       -0.0362
     55 H          12.7222    2.5984    2.2884 H       1  UNL1        0.0639
     56 C           8.2025    2.8507   -0.5824 C.3     1  UNL1       -0.0396
     57 H           8.4017    2.9212   -1.6490 H       1  UNL1        0.0278
     58 H           7.6548    3.7409   -0.2711 H       1  UNL1        0.0278
     59 H           7.5661    1.9874   -0.3959 H       1  UNL1        0.0278
     60 C          13.2023    3.2337   -0.2758 C.3     1  UNL1       -0.0396
     61 H          13.6064    2.3206   -0.7147 H       1  UNL1        0.0278
     62 H          13.9186    3.6028    0.4547 H       1  UNL1        0.0278
     63 H          13.0984    3.9695   -1.0700 H       1  UNL1        0.0278
     64 C           7.8100    0.5241    6.9217 C.ar    1  UNL1       -0.0099
     65 C           6.7887   -0.3900    7.1531 C.ar    1  UNL1       -0.0532
     66 H           6.3147   -0.8847    6.3158 H       1  UNL1        0.0624
     67 C           6.3767   -0.6502    8.4472 C.ar    1  UNL1       -0.0611
     68 H           5.5826   -1.3588    8.6316 H       1  UNL1        0.0618
     69 C           6.9990   -0.0110    9.5068 C.ar    1  UNL1       -0.0614
     70 H           6.7041   -0.2358   10.5212 H       1  UNL1        0.0618
     71 C           7.9850    0.9332    9.2725 C.ar    1  UNL1       -0.0564
     72 H           8.4508    1.4326   10.1120 H       1  UNL1        0.0621
     73 C           8.3806    1.2426    7.9779 C.ar    1  UNL1       -0.0202
     74 C           9.4009    2.3415    7.7021 C.3     1  UNL1        0.0570
     75 H           9.7115    2.7782    8.6629 H       1  UNL1        0.0531
     76 H          10.2915    1.8738    7.2504 H       1  UNL1        0.0531
     77 C           8.0447    4.2973    7.3029 C.ar    1  UNL1        0.0486
     78 C           7.7689    5.4585    6.5568 C.ar    1  UNL1       -0.0362
     79 H           8.3270    5.6524    5.6467 H       1  UNL1        0.0639
     80 C           6.8299    6.3875    6.9642 C.ar    1  UNL1       -0.0484
     81 C           6.1524    6.1946    8.1632 C.ar    1  UNL1       -0.0558
     82 H           5.4192    6.9177    8.4906 H       1  UNL1        0.0623
     83 C           6.4254    5.0831    8.9443 C.ar    1  UNL1       -0.0484
     84 C           7.3592    4.1512    8.5169 C.ar    1  UNL1       -0.0362
     85 H           7.5277    3.2928    9.1440 H       1  UNL1        0.0639
     86 C           6.5779    7.6067    6.1266 C.3     1  UNL1       -0.0396
     87 H           6.6679    7.3723    5.0677 H       1  UNL1        0.0278
     88 H           7.3098    8.3790    6.3649 H       1  UNL1        0.0278
     89 H           5.5865    8.0108    6.3180 H       1  UNL1        0.0278
     90 C           5.7289    4.8792   10.2584 C.3     1  UNL1       -0.0396
     91 H           6.3810    5.1824   11.0783 H       1  UNL1        0.0278
     92 H           5.4740    3.8308   10.4027 H       1  UNL1        0.0278
     93 H           4.8197    5.4732   10.3122 H       1  UNL1        0.0278
@<TRIPOS>BOND
     1    57    56    1
     2    52    51    1
     3    63    60    1
     4    61    60    1
     5    31    30    1
     6    56    59    1
     7    56    58    1
     8    56    50    1
     9    51    50   ar
    10    51    53   ar
    11    60    53    1
    12    60    62    1
    13    32    30    1
    14    50    48   ar
    15    30    33    1
    16    30    23    1
    17    53    54   ar
    18    22    21    1
    19    23    21   ar
    20    23    24   ar
    21    21    20   ar
    22    48    49    1
    23    48    47   ar
    24    11    10    1
    25    54    55    1
    26    54    47   ar
    27    27    26    1
    28    25    24    1
    29    24    17   ar
    30     9     8    1
    31    10     8   ar
    32    10    12   ar
    33    47     3    1
    34    20    26    1
    35    20    18   ar
    36     8     6   ar
    37    26    28    1
    38    26    29    1
    39    13    12    1
    40    12    14   ar
    41    17    18   ar
    42    17     2    1
    43    18    19    1
    44     6     7    1
    45     6     5   ar
    46     2    15    1
    47    42    41    1
    48     3    44    1
    49    46    44    1
    50    14     5   ar
    51    14    15    1
    52    40    39    1
    53     5     1    1
    54    41    39   ar
    55    41    43   ar
    56    44    43    1
    57    44    45    1
    58    39    37   ar
    59    43    34   ar
    60    15    16    1
    61    37    38    1
    62    37    35   ar
    63    34    35   ar
    64    34     1    1
    65    87    86    1
    66    35    36    1
    67     1    64    1
    68    79    78    1
    69    86    89    1
    70    86    88    1
    71    86    80    1
    72    66    65    1
    73    78    80   ar
    74    78    77   ar
    75     4    77    1
    76     4    74    1
    77    64    65   ar
    78    64    73   ar
    79    80    81   ar
    80    65    67   ar
    81    76    74    1
    82    77    84   ar
    83    74    73    1
    84    74    75    1
    85    73    71   ar
    86    81    82    1
    87    81    83   ar
    88    67    68    1
    89    67    69   ar
    90    84    83   ar
    91    84    85    1
    92    83    90    1
    93    71    69   ar
    94    71    72    1
    95    69    70    1
    96    90    93    1
    97    90    92    1
    98    90    91    1
