@<TRIPOS>MOLECULE
6,11,15,16
 38 38 0 0 0
SMALL
GASTEIGER

@<TRIPOS>ATOM
      1 S           9.6248    1.0880    9.6391 S.3     1  UNL1       -0.1205
      2 S           6.8784    0.1346    8.3823 S.3     1  UNL1       -0.1205
      3 F           2.7981    1.7892    8.7798 F       1  UNL1       -0.1671
      4 F           3.3510    3.7663    9.3893 F       1  UNL1       -0.1671
      5 F           3.4465    3.2125    7.3092 F       1  UNL1       -0.1671
      6 F           7.3405    3.1616    8.7574 F       1  UNL1       -0.1671
      7 F           5.7619    4.6186    8.7949 F       1  UNL1       -0.1671
      8 F           6.2030    3.5709    6.9681 F       1  UNL1       -0.1671
      9 F           8.7426    4.9140   12.7712 F       1  UNL1       -0.1671
     10 F           9.5806    5.4088   10.8548 F       1  UNL1       -0.1671
     11 F           7.7272    4.2992   10.9820 F       1  UNL1       -0.1671
     12 F          11.5539    1.9480   12.4444 F       1  UNL1       -0.1671
     13 F          10.4268    3.1722   13.7991 F       1  UNL1       -0.1671
     14 F          11.6849    4.0872   12.3114 F       1  UNL1       -0.1671
     15 O           8.7378    2.1594   11.9522 O.3     1  UNL1       -0.2077
     16 O           5.3406    2.1329   10.0960 O.3     1  UNL1       -0.2077
     17 C           9.3181    1.3369    7.8968 C.ar    1  UNL1        0.0214
     18 C          10.2785    1.9288    7.0854 C.ar    1  UNL1       -0.0473
     19 H          11.2132    2.2473    7.5184 H       1  UNL1        0.0629
     20 C          10.0403    2.1042    5.7351 C.ar    1  UNL1       -0.0607
     21 H          10.7881    2.5756    5.1168 H       1  UNL1        0.0618
     22 C           8.8544    1.6545    5.1758 C.ar    1  UNL1       -0.0607
     23 H           8.6737    1.7686    4.1186 H       1  UNL1        0.0618
     24 C           7.9026    1.0445    5.9708 C.ar    1  UNL1       -0.0473
     25 H           6.9918    0.6716    5.5297 H       1  UNL1        0.0629
     26 C           8.1133    0.9053    7.3364 C.ar    1  UNL1        0.0214
     27 C          10.2195    2.7624   10.1066 C.3     1  UNL1        0.0479
     28 H          11.3096    2.7724   10.1099 H       1  UNL1        0.0415
     29 H           9.8449    3.4730    9.3710 H       1  UNL1        0.0415
     30 C           5.3535    1.0233    7.9113 C.3     1  UNL1        0.0479
     31 H           5.3560    1.2599    6.8484 H       1  UNL1        0.0415
     32 H           4.5575    0.3137    8.1405 H       1  UNL1        0.0415
     33 C           9.6531    3.0519   11.5322 C.3     1  UNL1        0.3001
     34 C          10.8335    3.0672   12.5396 C.3     1  UNL1        0.4309
     35 C           8.9674    4.4475   11.5478 C.3     1  UNL1        0.4309
     36 C           5.1353    2.2929    8.7772 C.3     1  UNL1        0.3001
     37 C           6.0791    3.4314    8.2903 C.3     1  UNL1        0.4309
     38 C           3.6716    2.7744    8.5602 C.3     1  UNL1        0.4309
@<TRIPOS>BOND
     1    23    22    1
     2    21    20    1
     3    22    20   ar
     4    22    24   ar
     5    25    24    1
     6    20    18   ar
     7    24    26   ar
     8    31    30    1
     9     8    37    1
    10    18    19    1
    11    18    17   ar
    12     5    38    1
    13    26    17   ar
    14    26     2    1
    15    17     1    1
    16    30    32    1
    17    30     2    1
    18    30    36    1
    19    37     6    1
    20    37    36    1
    21    37     7    1
    22    38    36    1
    23    38     3    1
    24    38     4    1
    25    36    16    1
    26    29    27    1
    27     1    27    1
    28    27    28    1
    29    27    33    1
    30    10    35    1
    31    11    35    1
    32    33    35    1
    33    33    15    1
    34    33    34    1
    35    35     9    1
    36    14    34    1
    37    12    34    1
    38    34    13    1
