@<TRIPOS>MOLECULE
1,2
 18 17 0 0 0
SMALL
GASTEIGER

@<TRIPOS>ATOM
      1 S           5.3623    3.3830    3.5693 S.3     1  UNL1       -0.0433
      2 S           8.0652    2.1531    4.8408 S.3     1  UNL1       -0.0433
      3 O           8.0468    6.0243    2.5146 O.2     1  UNL1       -0.2443
      4 O           5.8716    5.7233    2.0486 O.3     1  UNL1       -0.4641
      5 O          10.1714    3.9868    2.8499 O.2     1  UNL1       -0.2443
      6 O           9.6334    5.0984    4.7245 O.3     1  UNL1       -0.4641
      7 C           6.9334    4.1239    3.3747 C.2     1  UNL1        0.1239
      8 C           8.0592    3.5816    3.9204 C.2     1  UNL1        0.1239
      9 C           7.0312    5.3642    2.6186 C.2     1  UNL1        0.3475
     10 C           5.9078    6.9170    1.2915 C.3     1  UNL1        0.0820
     11 C           9.3918    4.2416    3.7254 C.2     1  UNL1        0.3475
     12 C          10.8461    5.8255    4.6125 C.3     1  UNL1        0.0820
     13 H           6.1715    7.7661    1.9279 H       1  UNL1        0.0661
     14 H           4.9098    7.0441    0.8788 H       1  UNL1        0.0661
     15 H           6.6483    6.8393    0.4914 H       1  UNL1        0.0661
     16 H          11.6924    5.1410    4.5183 H       1  UNL1        0.0661
     17 H          10.9299    6.4214    5.5184 H       1  UNL1        0.0661
     18 H          10.8055    6.4663    3.7292 H       1  UNL1        0.0661
@<TRIPOS>BOND
     1    15    10    1
     2    14    10    1
     3    10    13    1
     4    10     4    1
     5     4     9    1
     6     3     9    2
     7     9     7    1
     8     5    11    2
     9     7     1    1
    10     7     8    2
    11    11     8    1
    12    11     6    1
    13    18    12    1
    14     8     2    1
    15    16    12    1
    16    12     6    1
    17    12    17    1
