@<TRIPOS>MOLECULE
1,2
 18 17 0 0 0
SMALL
GASTEIGER

@<TRIPOS>ATOM
      1 S           6.4328   -0.9078    5.4170 S.3     1  UNL1       -0.0433
      2 S           6.1744    0.4567    2.5121 S.3     1  UNL1       -0.0433
      3 O           6.8225   -4.0011    3.0545 O.2     1  UNL1       -0.2443
      4 O           6.9140   -3.6893    5.2756 O.3     1  UNL1       -0.4641
      5 O           7.6619   -2.1571    0.8624 O.2     1  UNL1       -0.2443
      6 O           5.4499   -2.4873    1.0408 O.3     1  UNL1       -0.4641
      7 C           6.5498   -1.8188    3.9309 C.2     1  UNL1        0.1239
      8 C           6.4574   -1.2208    2.7158 C.2     1  UNL1        0.1239
      9 C           6.7740   -3.2557    4.0129 C.2     1  UNL1        0.3475
     10 C           7.1364   -5.0777    5.4231 C.3     1  UNL1        0.0820
     11 C           6.6283   -2.0167    1.4564 C.2     1  UNL1        0.3475
     12 C           5.5009   -3.3138   -0.1107 C.3     1  UNL1        0.0820
     13 H           6.2805   -5.6446    5.0470 H       1  UNL1        0.0661
     14 H           7.2709   -5.2511    6.4882 H       1  UNL1        0.0661
     15 H           8.0265   -5.3833    4.8673 H       1  UNL1        0.0661
     16 H           5.9957   -2.7904   -0.9323 H       1  UNL1        0.0661
     17 H           4.4697   -3.5465   -0.3655 H       1  UNL1        0.0661
     18 H           6.0585   -4.2240    0.1203 H       1  UNL1        0.0661
@<TRIPOS>BOND
     1    16    12    1
     2    17    12    1
     3    12    18    1
     4    12     6    1
     5     5    11    2
     6     6    11    1
     7    11     8    1
     8     2     8    1
     9     8     7    2
    10     3     9    2
    11     7     9    1
    12     7     1    1
    13     9     4    1
    14    15    10    1
    15    13    10    1
    16     4    10    1
    17    10    14    1
