@<TRIPOS>MOLECULE
1,2
 12 11 0 0 0
SMALL
GASTEIGER

@<TRIPOS>ATOM
      1 S           4.5343    2.6155    0.1234 S.3     1  UNL1       -0.0523
      2 S           4.2013    0.0176    1.3743 S.3     1  UNL1       -0.0523
      3 N           2.3555    1.9216    1.4728 N.3     1  UNL1       -0.2817
      4 C           3.5709    1.5634    1.0370 C.3     1  UNL1        0.1734
      5 C           1.8036    3.2249    1.2102 C.3     1  UNL1       -0.0109
      6 H           2.3955    3.7252    0.4472 H       1  UNL1        0.0391
      7 H           1.8099    3.8314    2.1208 H       1  UNL1        0.0391
      8 H           0.7762    3.1185    0.8569 H       1  UNL1        0.0391
      9 C           1.5453    1.0705    2.3041 C.3     1  UNL1       -0.0109
     10 H           2.0567    0.1251    2.4701 H       1  UNL1        0.0391
     11 H           0.5863    0.8797    1.8160 H       1  UNL1        0.0391
     12 H           1.3628    1.5557    3.2666 H       1  UNL1        0.0391
@<TRIPOS>BOND
     1     1     4    1
     2     6     5    1
     3     8     5    1
     4     4     2    1
     5     4     3    1
     6     5     3    1
     7     5     7    1
     8     3     9    1
     9    11     9    1
    10     9    10    1
    11     9    12    1
