@<TRIPOS>MOLECULE
1,2
 11 10 0 0 0
SMALL
GASTEIGER

@<TRIPOS>ATOM
      1 S           3.1330    1.9222    0.5996 S.3     1  UNL1        0.0000
      2 S           3.0721    3.7662    3.3519 S.3     1  UNL1        0.0000
      3 SI          2.1119    3.5189    1.5005 Si      1  UNL1        0.0000
      4 C           1.8259    5.0672    0.4583 C.3     1  UNL1        0.0000
      5 C           0.4946    2.6591    2.0524 C.3     1  UNL1        0.0000
      6 H           2.7767    5.5150    0.2015 H       1  UNL1        0.0000
      7 H           1.3058    4.8196   -0.4583 H       1  UNL1        0.0000
      8 H           1.2417    5.7952    1.0068 H       1  UNL1        0.0000
      9 H          -0.1241    3.2741    2.6963 H       1  UNL1        0.0000
     10 H          -0.1073    2.2938    1.2273 H       1  UNL1        0.0000
     11 H           0.8369    1.7928    2.6397 H       1  UNL1        0.0000
@<TRIPOS>BOND
     1     7     4    1
     2     6     4    1
     3     4     8    1
     4     4     3    1
     5     1     3    1
     6    10     5    1
     7     3     5    1
     8     3     2    1
     9     5    11    1
    10     5     9    1
