@<TRIPOS>MOLECULE
1,5
 5 4 0 0 0
SMALL
GASTEIGER

@<TRIPOS>ATOM
      1 S           2.1125    6.6836   -7.9732 S.3     1  UNL1        0.0000
      2 S           4.0726    6.2055   -7.7810 S.3     1  UNL1        0.0000
      3 S           4.0628    4.4439   -6.7008 S.3     1  UNL1        0.0000
      4 S           3.6931    5.1216   -4.7861 S.3     1  UNL1        0.0000
      5 S           1.7322    5.6309   -4.7635 S.3     1  UNL1        0.0000
@<TRIPOS>BOND
     1     1     2    1
     2     2     3    1
     3     3     4    1
     4     4     5    1
