@<TRIPOS>MOLECULE
1,2
 52 53 0 0 0
SMALL
GASTEIGER

@<TRIPOS>ATOM
      1 S           6.5116    2.9910    3.4473 S.3     1  UNL1        0.0000
      2 S           6.9862    0.8987    1.5746 S.2     1  UNL1        0.0000
      3 SI          8.4075    1.6926    5.5832 Si      1  UNL1        0.0000
      4 N           8.2940    1.0772    3.9110 N.am    1  UNL1        0.0000
      5 C           9.6295    0.5737    6.5660 C.3     1  UNL1        0.0000
      6 C           9.2179   -0.8962    6.6434 C.3     1  UNL1        0.0000
      7 C          11.0900    0.6564    6.1254 C.3     1  UNL1        0.0000
      8 C           6.6686    1.6680    6.4401 C.3     1  UNL1        0.0000
      9 C           5.7065    0.5984    5.9252 C.3     1  UNL1        0.0000
     10 C           6.7745    1.5592    7.9622 C.3     1  UNL1        0.0000
     11 C           8.9827    3.5384    5.5721 C.3     1  UNL1        0.0000
     12 C           9.5993    3.9746    6.9010 C.3     1  UNL1        0.0000
     13 C           9.9291    3.8740    4.4212 C.3     1  UNL1        0.0000
     14 C           7.3778    1.5868    3.0759 C.2     1  UNL1        0.0000
     15 C           9.1700    0.1119    3.3329 C.ar    1  UNL1        0.0000
     16 C          10.3792    0.5373    2.8476 C.ar    1  UNL1        0.0000
     17 C          11.2724   -0.3671    2.2578 C.ar    1  UNL1        0.0000
     18 C          10.9450   -1.6888    2.1523 C.ar    1  UNL1        0.0000
     19 C           9.3269   -3.5131    2.4941 C.ar    1  UNL1        0.0000
     20 C           8.1051   -3.9476    2.9231 C.ar    1  UNL1        0.0000
     21 C           7.1955   -3.0428    3.4911 C.ar    1  UNL1        0.0000
     22 C           7.5272   -1.7253    3.6312 C.ar    1  UNL1        0.0000
     23 C           8.7829   -1.2459    3.2058 C.ar    1  UNL1        0.0000
     24 C           9.6980   -2.1572    2.6138 C.ar    1  UNL1        0.0000
     25 H           9.5857    0.9734    7.5841 H       1  UNL1        0.0000
     26 H           8.1885   -1.0056    6.9720 H       1  UNL1        0.0000
     27 H           9.8558   -1.4253    7.3508 H       1  UNL1        0.0000
     28 H           9.3201   -1.3786    5.6755 H       1  UNL1        0.0000
     29 H          11.4337    1.6854    6.0790 H       1  UNL1        0.0000
     30 H          11.2267    0.2034    5.1477 H       1  UNL1        0.0000
     31 H          11.7212    0.1221    6.8349 H       1  UNL1        0.0000
     32 H           6.2043    2.6356    6.2245 H       1  UNL1        0.0000
     33 H           5.5455    0.7090    4.8551 H       1  UNL1        0.0000
     34 H           4.7392    0.6973    6.4173 H       1  UNL1        0.0000
     35 H           6.0836   -0.4021    6.1252 H       1  UNL1        0.0000
     36 H           7.4142    2.3377    8.3671 H       1  UNL1        0.0000
     37 H           7.1798    0.5964    8.2606 H       1  UNL1        0.0000
     38 H           5.7887    1.6639    8.4130 H       1  UNL1        0.0000
     39 H           8.0866    4.1488    5.4231 H       1  UNL1        0.0000
     40 H           8.9038    3.8218    7.7211 H       1  UNL1        0.0000
     41 H           9.8514    5.0332    6.8656 H       1  UNL1        0.0000
     42 H          10.5071    3.4188    7.1179 H       1  UNL1        0.0000
     43 H           9.4643    3.6366    3.4677 H       1  UNL1        0.0000
     44 H          10.8642    3.3253    4.5053 H       1  UNL1        0.0000
     45 H          10.1619    4.9378    4.4209 H       1  UNL1        0.0000
     46 H          10.6374    1.5819    2.9204 H       1  UNL1        0.0000
     47 H          12.2211   -0.0043    1.8903 H       1  UNL1        0.0000
     48 H          11.6301   -2.3927    1.7025 H       1  UNL1        0.0000
     49 H          10.0303   -4.2020    2.0482 H       1  UNL1        0.0000
     50 H           7.8287   -4.9872    2.8236 H       1  UNL1        0.0000
     51 H           6.2279   -3.3966    3.8158 H       1  UNL1        0.0000
     52 H           6.8280   -1.0284    4.0618 H       1  UNL1        0.0000
@<TRIPOS>BOND
     1     2    14    2
     2    48    18    1
     3    47    17    1
     4    49    19    1
     5    18    17   ar
     6    18    24   ar
     7    17    16   ar
     8    19    24   ar
     9    19    20   ar
    10    24    23   ar
    11    50    20    1
    12    16    46    1
    13    16    15   ar
    14    20    21   ar
    15    14     1    1
    16    14     4    1
    17    23    15   ar
    18    23    22   ar
    19    15     4    1
    20    43    13    1
    21    21    22   ar
    22    21    51    1
    23    22    52    1
    24     4     3    1
    25    45    13    1
    26    13    44    1
    27    13    11    1
    28    33     9    1
    29    30     7    1
    30    39    11    1
    31    11     3    1
    32    11    12    1
    33     3     8    1
    34     3     5    1
    35    28     6    1
    36     9    35    1
    37     9    34    1
    38     9     8    1
    39    29     7    1
    40     7     5    1
    41     7    31    1
    42    32     8    1
    43     8    10    1
    44     5     6    1
    45     5    25    1
    46     6    26    1
    47     6    27    1
    48    41    12    1
    49    12    42    1
    50    12    40    1
    51    10    37    1
    52    10    36    1
    53    10    38    1
