@<TRIPOS>MOLECULE
1,2
 18 17 0 0 0
SMALL
GASTEIGER

@<TRIPOS>ATOM
      1 S           2.9989    1.8760   -0.1711 S.2     1  UNL1       -0.0271
      2 S           0.6710    2.7817    1.3330 S.3     1  UNL1       -0.0271
      3 N           0.5111    1.4173   -0.9435 N.am    1  UNL1       -0.3189
      4 C           1.3277    1.9668   -0.0341 C.2     1  UNL1        0.1200
      5 C           1.0644    0.7361   -2.0974 C.3     1  UNL1        0.0103
      6 C           1.4280    1.6891   -3.2324 C.3     1  UNL1       -0.0493
      7 C          -0.9272    1.5408   -0.8219 C.3     1  UNL1        0.0103
      8 C          -1.4542    2.8747   -1.3443 C.3     1  UNL1       -0.0493
      9 H           0.3320    0.0017   -2.4394 H       1  UNL1        0.0461
     10 H           1.9676    0.2098   -1.7745 H       1  UNL1        0.0461
     11 H           1.8845    1.1293   -4.0439 H       1  UNL1        0.0245
     12 H           0.5482    2.2007   -3.6131 H       1  UNL1        0.0245
     13 H           2.1412    2.4284   -2.8780 H       1  UNL1        0.0245
     14 H          -1.1869    1.4462    0.2367 H       1  UNL1        0.0461
     15 H          -1.3839    0.7144   -1.3706 H       1  UNL1        0.0461
     16 H          -2.5285    2.9255   -1.1912 H       1  UNL1        0.0245
     17 H          -0.9876    3.6933   -0.8026 H       1  UNL1        0.0245
     18 H          -1.2467    2.9898   -2.4046 H       1  UNL1        0.0245
@<TRIPOS>BOND
     1    11     6    1
     2    12     6    1
     3     6    13    1
     4     6     5    1
     5     9     5    1
     6    18     8    1
     7     5    10    1
     8     5     3    1
     9    15     7    1
    10     8    16    1
    11     8     7    1
    12     8    17    1
    13     3     7    1
    14     3     4    1
    15     7    14    1
    16     1     4    2
    17     4     2    1
