@<TRIPOS>MOLECULE
1,2
 12 12 0 0 0
SMALL
GASTEIGER

@<TRIPOS>ATOM
      1 S          14.0189   12.9592   14.6862 S.3     1  UNL1       -0.0508
      2 S          11.7110   13.1034   12.4778 S.3     1  UNL1       -0.0508
      3 C          14.3726   13.5155   13.0617 C.ar    1  UNL1        0.0332
      4 C          13.3693   13.5693   12.0850 C.ar    1  UNL1        0.0332
      5 C          13.6748   14.0296   10.8110 C.ar    1  UNL1       -0.0464
      6 H          12.8854   14.0635   10.0760 H       1  UNL1        0.0629
      7 C          14.9621   14.4233   10.4963 C.ar    1  UNL1       -0.0606
      8 H          15.1899   14.7675    9.4975 H       1  UNL1        0.0618
      9 C          15.9553   14.3756   11.4628 C.ar    1  UNL1       -0.0606
     10 H          16.9634   14.6840   11.2232 H       1  UNL1        0.0618
     11 C          15.6597   13.9318   12.7370 C.ar    1  UNL1       -0.0464
     12 H          16.4203   13.8902   13.5021 H       1  UNL1        0.0629
@<TRIPOS>BOND
     1     8     7    1
     2     6     5    1
     3     7     5   ar
     4     7     9   ar
     5     5     4   ar
     6    10     9    1
     7     9    11   ar
     8     4     2    1
     9     4     3   ar
    10    11     3   ar
    11    11    12    1
    12     3     1    1
