@<TRIPOS>MOLECULE
1,2
 12 12 0 0 0
SMALL
GASTEIGER

@<TRIPOS>ATOM
      1 S           1.0776    4.0372   14.6288 S.3     1  UNL1       -0.0508
      2 S           2.9748    2.9378   12.3007 S.3     1  UNL1       -0.0508
      3 C           1.5944    3.9796   11.9295 C.ar    1  UNL1        0.0332
      4 C           0.7723    4.4623   12.9564 C.ar    1  UNL1        0.0332
      5 C          -0.2824    5.3120   12.6385 C.ar    1  UNL1       -0.0464
      6 H          -0.9036    5.6804   13.4411 H       1  UNL1        0.0629
      7 C           1.3423    4.3497   10.6155 C.ar    1  UNL1       -0.0464
      8 H           1.9898    3.9657    9.8423 H       1  UNL1        0.0629
      9 C           0.2795    5.1803   10.3113 C.ar    1  UNL1       -0.0606
     10 H           0.0857    5.4504    9.2828 H       1  UNL1        0.0618
     11 C          -0.5328    5.6625   11.3260 C.ar    1  UNL1       -0.0606
     12 H          -1.3649    6.3129   11.0947 H       1  UNL1        0.0618
@<TRIPOS>BOND
     1    10     9    1
     2     8     7    1
     3     9     7   ar
     4     9    11   ar
     5     7     3   ar
     6    12    11    1
     7    11     5   ar
     8     3     2    1
     9     3     4   ar
    10     5     4   ar
    11     5     6    1
    12     4     1    1
