@<TRIPOS>MOLECULE
1,2
 18 17 0 0 0
SMALL
GASTEIGER

@<TRIPOS>ATOM
      1 S           2.6721    4.5219    2.3754 S.3     1  UNL1        0.0000
      2 S           2.6847    6.5442    2.2609 S.3     1  UNL1        0.0000
      3 SI          1.6020    2.3789    4.3192 Si      1  UNL1        0.0000
      4 C           1.3611    4.1392    3.5762 C.3     1  UNL1        0.0000
      5 C           3.4524    1.9384    4.2632 C.3     1  UNL1        0.0000
      6 C           0.9464    2.4439    6.1003 C.3     1  UNL1        0.0000
      7 C           0.6247    1.1814    3.2020 C.3     1  UNL1        0.0000
      8 H           1.4202    4.8991    4.3528 H       1  UNL1        0.0000
      9 H           0.4167    4.2422    3.0459 H       1  UNL1        0.0000
     10 H           3.6640    1.0294    4.8169 H       1  UNL1        0.0000
     11 H           3.7979    1.7921    3.2430 H       1  UNL1        0.0000
     12 H           4.0374    2.7392    4.7096 H       1  UNL1        0.0000
     13 H           1.5409    3.1294    6.6973 H       1  UNL1        0.0000
     14 H          -0.0859    2.7785    6.1367 H       1  UNL1        0.0000
     15 H           0.9925    1.4664    6.5686 H       1  UNL1        0.0000
     16 H          -0.4390    1.3952    3.2309 H       1  UNL1        0.0000
     17 H           0.9440    1.2417    2.1656 H       1  UNL1        0.0000
     18 H           0.7581    0.1555    3.5278 H       1  UNL1        0.0000
@<TRIPOS>BOND
     1    17     7    1
     2     2     1    1
     3     1     4    1
     4     9     4    1
     5     7    16    1
     6     7    18    1
     7     7     3    1
     8    11     5    1
     9     4     3    1
    10     4     8    1
    11     5     3    1
    12     5    12    1
    13     5    10    1
    14     3     6    1
    15     6    14    1
    16     6    15    1
    17     6    13    1
