@<TRIPOS>MOLECULE
1,2
 12 11 0 0 0
SMALL
GASTEIGER

@<TRIPOS>ATOM
      1 S           1.1664    0.0001    4.5144 S.3     1  UNL1       -0.0523
      2 S           3.9754   -0.0000    5.2741 S.3     1  UNL1       -0.0523
      3 N           1.9968   -0.0000    7.0321 N.3     1  UNL1       -0.2817
      4 C           2.3454   -0.0001    5.7395 C.3     1  UNL1        0.1734
      5 C           0.6243    0.0000    7.4665 C.3     1  UNL1       -0.0109
      6 H          -0.0380    0.0002    6.6035 H       1  UNL1        0.0391
      7 H           0.4273    0.8892    8.0707 H       1  UNL1        0.0391
      8 H           0.4272   -0.8893    8.0704 H       1  UNL1        0.0391
      9 C           2.9661   -0.0001    8.0965 C.3     1  UNL1       -0.0109
     10 H           3.9717   -0.0002    7.6829 H       1  UNL1        0.0391
     11 H           2.8345   -0.8906    8.7165 H       1  UNL1        0.0391
     12 H           2.8347    0.8906    8.7163 H       1  UNL1        0.0391
@<TRIPOS>BOND
     1     1     4    1
     2     2     4    1
     3     4     3    1
     4     6     5    1
     5     3     5    1
     6     3     9    1
     7     5     8    1
     8     5     7    1
     9    10     9    1
    10     9    12    1
    11     9    11    1
