@<TRIPOS>MOLECULE
1,2
 12 11 0 0 0
SMALL
GASTEIGER

@<TRIPOS>ATOM
      1 S           4.8504   -1.3194    4.4162 S.3     1  UNL1       -0.0523
      2 S           4.3315   -0.4946    1.6701 S.3     1  UNL1       -0.0523
      3 N           6.7625   -0.9456    2.6230 N.3     1  UNL1       -0.2817
      4 C           5.4467   -0.9217    2.8802 C.3     1  UNL1        0.1734
      5 C           7.7409   -1.2933    3.6197 C.3     1  UNL1       -0.0109
      6 H           7.2452   -1.5245    4.5594 H       1  UNL1        0.0391
      7 H           8.4268   -0.4562    3.7738 H       1  UNL1        0.0391
      8 H           8.3101   -2.1667    3.2908 H       1  UNL1        0.0391
      9 C           7.3084   -0.6205    1.3314 C.3     1  UNL1       -0.0109
     10 H           6.5037   -0.3818    0.6395 H       1  UNL1        0.0391
     11 H           7.8747   -1.4716    0.9444 H       1  UNL1        0.0391
     12 H           7.9770    0.2403    1.4161 H       1  UNL1        0.0391
@<TRIPOS>BOND
     1    10     9    1
     2    11     9    1
     3     9    12    1
     4     9     3    1
     5     2     4    1
     6     3     4    1
     7     3     5    1
     8     4     1    1
     9     8     5    1
    10     5     7    1
    11     5     6    1
