@<TRIPOS>MOLECULE
1,2
 11 10 0 0 0
SMALL
GASTEIGER

@<TRIPOS>ATOM
      1 S           2.9077    3.4814    2.0908 S.3     1  UNL1        0.0000
      2 S           3.7050    3.4785   -1.1533 S.3     1  UNL1        0.0000
      3 SI          4.6057    3.4770    0.7912 Si      1  UNL1        0.0000
      4 C           5.6683    1.9124    1.0419 C.3     1  UNL1        0.0000
      5 H           6.4047    1.8236    0.2508 H       1  UNL1        0.0000
      6 H           5.0671    1.0079    1.0497 H       1  UNL1        0.0000
      7 H           6.1944    1.9710    1.9878 H       1  UNL1        0.0000
      8 C           5.6689    5.0414    1.0405 C.3     1  UNL1        0.0000
      9 H           6.4038    5.1304    0.2481 H       1  UNL1        0.0000
     10 H           5.0679    5.9460    1.0499 H       1  UNL1        0.0000
     11 H           6.1966    4.9823    1.9855 H       1  UNL1        0.0000
@<TRIPOS>BOND
     1     2     3    1
     2     9     8    1
     3     5     4    1
     4     3     8    1
     5     3     4    1
     6     3     1    1
     7     8    10    1
     8     8    11    1
     9     4     6    1
    10     4     7    1
