@<TRIPOS>MOLECULE
1,2
 12 12 0 0 0
SMALL
GASTEIGER

@<TRIPOS>ATOM
      1 S           3.5019    2.3077    5.0151 S.3     1  UNL1       -0.0508
      2 S           3.1720    0.3967    2.5286 S.3     1  UNL1       -0.0508
      3 C           3.9820    0.6230    5.1302 C.ar    1  UNL1        0.0332
      4 C           3.8336   -0.2242    4.0313 C.ar    1  UNL1        0.0332
      5 C           4.2277   -1.5528    4.1279 C.ar    1  UNL1       -0.0464
      6 C           4.7459   -2.0407    5.3124 C.ar    1  UNL1       -0.0606
      7 C           4.8920   -1.1990    6.4061 C.ar    1  UNL1       -0.0606
      8 C           4.5201    0.1285    6.3121 C.ar    1  UNL1       -0.0464
      9 H           4.1127   -2.1906    3.2639 H       1  UNL1        0.0629
     10 H           5.0397   -3.0791    5.3834 H       1  UNL1        0.0618
     11 H           5.3002   -1.5790    7.3328 H       1  UNL1        0.0618
     12 H           4.6333    0.8012    7.1496 H       1  UNL1        0.0629
@<TRIPOS>BOND
     1     2     4    1
     2     9     5    1
     3     4     5   ar
     4     4     3   ar
     5     5     6   ar
     6     1     3    1
     7     3     8   ar
     8     6    10    1
     9     6     7   ar
    10     8     7   ar
    11     8    12    1
    12     7    11    1
