@<TRIPOS>MOLECULE
1,2
 12 12 0 0 0
SMALL
GASTEIGER

@<TRIPOS>ATOM
      1 S           2.1358    2.8851    0.7901 S.3     1  UNL1       -0.0508
      2 S           2.4663    4.7574    3.3051 S.3     1  UNL1       -0.0508
      3 C           1.7932    4.6014    0.6573 C.ar    1  UNL1        0.0332
      4 C           1.9444    5.4306    1.7701 C.ar    1  UNL1        0.0332
      5 C           1.6764    6.7894    1.6563 C.ar    1  UNL1       -0.0464
      6 C           1.2434    7.3154    0.4540 C.ar    1  UNL1       -0.0606
      7 C           1.0923    6.4904   -0.6519 C.ar    1  UNL1       -0.0606
      8 C           1.3758    5.1415   -0.5526 C.ar    1  UNL1       -0.0464
      9 H           1.8037    7.4159    2.5269 H       1  UNL1        0.0629
     10 H           1.0242    8.3719    0.3769 H       1  UNL1        0.0618
     11 H           0.7545    6.9010   -1.5936 H       1  UNL1        0.0618
     12 H           1.2699    4.4844   -1.4032 H       1  UNL1        0.0629
@<TRIPOS>BOND
     1    11     7    1
     2    12     8    1
     3     7     8   ar
     4     7     6   ar
     5     8     3   ar
     6    10     6    1
     7     6     5   ar
     8     3     1    1
     9     3     4   ar
    10     5     4   ar
    11     5     9    1
    12     4     2    1
