@<TRIPOS>MOLECULE
1,2
 12 12 0 0 0
SMALL
GASTEIGER

@<TRIPOS>ATOM
      1 S           3.4861    9.6076    3.6042 S.3     1  UNL1       -0.0508
      2 S           2.0873    8.9099    0.8308 S.3     1  UNL1       -0.0508
      3 C           3.7379    8.0455    2.8324 C.ar    1  UNL1        0.0332
      4 C           3.0799    7.7212    1.6378 C.ar    1  UNL1        0.0332
      5 C           3.2838    6.4649    1.0729 C.ar    1  UNL1       -0.0464
      6 C           4.1045    5.5400    1.6874 C.ar    1  UNL1       -0.0606
      7 C           4.7558    5.8652    2.8693 C.ar    1  UNL1       -0.0606
      8 C           4.5751    7.1135    3.4337 C.ar    1  UNL1       -0.0464
      9 H           2.7778    6.2303    0.1480 H       1  UNL1        0.0629
     10 H           4.2399    4.5631    1.2438 H       1  UNL1        0.0618
     11 H           5.4041    5.1454    3.3495 H       1  UNL1        0.0618
     12 H           5.0728    7.3868    4.3523 H       1  UNL1        0.0629
@<TRIPOS>BOND
     1     9     5    1
     2     2     4    1
     3     5     4   ar
     4     5     6   ar
     5    10     6    1
     6     4     3   ar
     7     6     7   ar
     8     3     8   ar
     9     3     1    1
    10     7    11    1
    11     7     8   ar
    12     8    12    1
