@<TRIPOS>MOLECULE
1,2
 12 12 0 0 0
SMALL
GASTEIGER

@<TRIPOS>ATOM
      1 S           2.1134   12.2043    1.3213 S.3     1  UNL1       -0.0508
      2 S           1.3288   11.9627    4.4051 S.3     1  UNL1       -0.0508
      3 C           1.6209   13.6178    2.2473 C.ar    1  UNL1        0.0332
      4 C           1.2346   13.5022    3.5872 C.ar    1  UNL1        0.0332
      5 C           0.8401   14.6430    4.2814 C.ar    1  UNL1       -0.0464
      6 C           0.8129   15.8727    3.6552 C.ar    1  UNL1       -0.0606
      7 C           1.1982   15.9849    2.3260 C.ar    1  UNL1       -0.0606
      8 C           1.6023   14.8626    1.6295 C.ar    1  UNL1       -0.0464
      9 H           0.5504   14.5392    5.3167 H       1  UNL1        0.0629
     10 H           0.4937   16.7487    4.2035 H       1  UNL1        0.0618
     11 H           1.1841   16.9482    1.8347 H       1  UNL1        0.0618
     12 H           1.9072   14.9292    0.5955 H       1  UNL1        0.0629
@<TRIPOS>BOND
     1    12     8    1
     2     1     3    1
     3     8     3   ar
     4     8     7   ar
     5    11     7    1
     6     3     4   ar
     7     7     6   ar
     8     4     5   ar
     9     4     2    1
    10     6    10    1
    11     6     5   ar
    12     5     9    1
