@<TRIPOS>MOLECULE
1,2
 12 11 0 0 0
SMALL
GASTEIGER

@<TRIPOS>ATOM
      1 S           0.3495   11.2879    6.0988 S.2     1  UNL1       -0.0271
      2 S          -0.6250    9.4434    4.1201 S.3     1  UNL1       -0.0271
      3 N          -2.2312   10.7009    5.8269 N.am    1  UNL1       -0.3245
      4 C          -0.9880   10.5003    5.4024 C.2     1  UNL1        0.1195
      5 C          -3.3625   10.0066    5.2640 C.3     1  UNL1        0.0013
      6 C          -2.5435   11.5907    6.9177 C.3     1  UNL1        0.0013
      7 H          -3.0552    9.4779    4.3655 H       1  UNL1        0.0428
      8 H          -4.1445   10.7259    5.0175 H       1  UNL1        0.0428
      9 H          -3.7590    9.2888    5.9863 H       1  UNL1        0.0428
     10 H          -1.6248   12.0011    7.3297 H       1  UNL1        0.0428
     11 H          -3.0810   11.0456    7.6962 H       1  UNL1        0.0428
     12 H          -3.1746   12.4077    6.5618 H       1  UNL1        0.0428
@<TRIPOS>BOND
     1     2     4    1
     2     7     5    1
     3     8     5    1
     4     5     3    1
     5     5     9    1
     6     4     3    1
     7     4     1    2
     8     3     6    1
     9    12     6    1
    10     6    10    1
    11     6    11    1
