@<TRIPOS>MOLECULE
1,2
 12 11 0 0 0
SMALL
GASTEIGER

@<TRIPOS>ATOM
      1 S           4.3041    9.0130    3.4969 S.3     1  UNL1       -0.0523
      2 S           1.8234    8.5732    2.0916 S.3     1  UNL1       -0.0523
      3 N           4.0332    7.2049    1.5584 N.3     1  UNL1       -0.2817
      4 C           3.4546    8.1457    2.2920 C.3     1  UNL1        0.1734
      5 C           5.4231    6.8522    1.7028 C.3     1  UNL1       -0.0109
      6 C           3.3170    6.4862    0.5337 C.3     1  UNL1       -0.0109
      7 H           5.8718    7.4560    2.4876 H       1  UNL1        0.0391
      8 H           5.9465    7.0265    0.7612 H       1  UNL1        0.0391
      9 H           5.5082    5.7958    1.9657 H       1  UNL1        0.0391
     10 H           2.2467    6.6015    0.6886 H       1  UNL1        0.0391
     11 H           3.5842    5.4306    0.5823 H       1  UNL1        0.0391
     12 H           3.5742    6.8799   -0.4521 H       1  UNL1        0.0391
@<TRIPOS>BOND
     1    12     6    1
     2     6    11    1
     3     6    10    1
     4     6     3    1
     5     8     5    1
     6     3     5    1
     7     3     4    1
     8     5     9    1
     9     5     7    1
    10     2     4    1
    11     4     1    1
