@<TRIPOS>MOLECULE
1,2
 12 12 0 0 0
SMALL
GASTEIGER

@<TRIPOS>ATOM
      1 S           9.5219    0.6893    2.6118 S.3     1  UNL1       -0.0508
      2 S           6.5648    1.8057    2.2231 S.3     1  UNL1       -0.0508
      3 C           9.1696    1.8281    1.3498 C.ar    1  UNL1        0.0332
      4 C           7.8672    2.3142    1.1671 C.ar    1  UNL1        0.0332
      5 C           7.6037    3.2063    0.1326 C.ar    1  UNL1       -0.0464
      6 C           8.6150    3.6233   -0.7087 C.ar    1  UNL1       -0.0606
      7 C           9.9071    3.1449   -0.5284 C.ar    1  UNL1       -0.0606
      8 C          10.1796    2.2537    0.4870 C.ar    1  UNL1       -0.0464
      9 H           6.5932    3.5661    0.0132 H       1  UNL1        0.0629
     10 H           8.4007    4.3237   -1.5036 H       1  UNL1        0.0618
     11 H          10.7025    3.4719   -1.1839 H       1  UNL1        0.0618
     12 H          11.1770    1.8705    0.6417 H       1  UNL1        0.0629
@<TRIPOS>BOND
     1    10     6    1
     2    11     7    1
     3     6     7   ar
     4     6     5   ar
     5     7     8   ar
     6     9     5    1
     7     5     4   ar
     8     8    12    1
     9     8     3   ar
    10     4     3   ar
    11     4     2    1
    12     3     1    1
