@<TRIPOS>MOLECULE
1,2
 12 12 0 0 0
SMALL
GASTEIGER

@<TRIPOS>ATOM
      1 S           9.0632    0.4060    6.0911 S.3     1  UNL1       -0.0508
      2 S           8.1178    3.0771    4.6149 S.3     1  UNL1       -0.0508
      3 C           9.4356    1.9811    6.7537 C.ar    1  UNL1        0.0332
      4 C           9.0357    3.1516    6.0984 C.ar    1  UNL1        0.0332
      5 C           9.3733    4.3889    6.6388 C.ar    1  UNL1       -0.0464
      6 C          10.0886    4.4702    7.8172 C.ar    1  UNL1       -0.0606
      7 C          10.4780    3.3105    8.4722 C.ar    1  UNL1       -0.0606
      8 C          10.1539    2.0770    7.9421 C.ar    1  UNL1       -0.0464
      9 H           9.0607    5.2784    6.1132 H       1  UNL1        0.0629
     10 H          10.3423    5.4382    8.2262 H       1  UNL1        0.0618
     11 H          11.0371    3.3682    9.3956 H       1  UNL1        0.0618
     12 H          10.4521    1.1633    8.4333 H       1  UNL1        0.0629
@<TRIPOS>BOND
     1     2     4    1
     2     1     3    1
     3     4     5   ar
     4     4     3   ar
     5     9     5    1
     6     5     6   ar
     7     3     8   ar
     8     6    10    1
     9     6     7   ar
    10     8    12    1
    11     8     7   ar
    12     7    11    1
