@<TRIPOS>MOLECULE
1,2
 36 36 0 0 0
SMALL
GASTEIGER

@<TRIPOS>ATOM
      1 S           6.1991   -4.9621   -0.7431 S.3     1  UNL1        0.0000
      2 S           9.0003   -6.1422   -0.3877 S.3     1  UNL1        0.0000
      3 C           7.5659   -4.0067   -1.2018 C.ar    1  UNL1        0.0000
      4 C           8.8490   -4.5456   -1.0349 C.ar    1  UNL1        0.0000
      5 C           9.9909   -3.8107   -1.3838 C.ar    1  UNL1        0.0000
      6 C           9.7972   -2.5398   -1.8984 C.ar    1  UNL1        0.0000
      7 H          10.6573   -1.9465   -2.1755 H       1  UNL1        0.0000
      8 C           8.5247   -2.0074   -2.0688 C.ar    1  UNL1        0.0000
      9 H           8.4210   -1.0114   -2.4759 H       1  UNL1        0.0000
     10 C           7.3868   -2.7199   -1.7290 C.ar    1  UNL1        0.0000
     11 SI          5.6357   -2.0399   -1.9416 Si      1  UNL1        0.0000
     12 C           4.6016   -3.0876   -3.1578 C.3     1  UNL1        0.0000
     13 H           3.6266   -2.6416   -3.3335 H       1  UNL1        0.0000
     14 H           5.1006   -3.1868   -4.1178 H       1  UNL1        0.0000
     15 H           4.4475   -4.0845   -2.7611 H       1  UNL1        0.0000
     16 C           4.7390   -1.8546   -0.2660 C.3     1  UNL1        0.0000
     17 H           4.6054   -2.8246    0.1990 H       1  UNL1        0.0000
     18 H           5.3076   -1.2334    0.4206 H       1  UNL1        0.0000
     19 H           3.7584   -1.4035   -0.3894 H       1  UNL1        0.0000
     20 C           5.7579   -0.2847   -2.7007 C.3     1  UNL1        0.0000
     21 H           4.7663    0.1339   -2.8393 H       1  UNL1        0.0000
     22 H           6.3115    0.3940   -2.0602 H       1  UNL1        0.0000
     23 H           6.2443   -0.2989   -3.6706 H       1  UNL1        0.0000
     24 SI         11.7002   -4.5811   -1.1407 Si      1  UNL1        0.0000
     25 C          12.0579   -4.9770    0.6926 C.3     1  UNL1        0.0000
     26 H          11.9264   -4.0992    1.3193 H       1  UNL1        0.0000
     27 H          11.3817   -5.7439    1.0528 H       1  UNL1        0.0000
     28 H          13.0748   -5.3345    0.8289 H       1  UNL1        0.0000
     29 C          13.0196   -3.3051   -1.6911 C.3     1  UNL1        0.0000
     30 H          12.9113   -3.0391   -2.7375 H       1  UNL1        0.0000
     31 H          12.9636   -2.3920   -1.1077 H       1  UNL1        0.0000
     32 H          14.0159   -3.7149   -1.5605 H       1  UNL1        0.0000
     33 C          11.9381   -6.1277   -2.2351 C.3     1  UNL1        0.0000
     34 H          12.9413   -6.5329   -2.1363 H       1  UNL1        0.0000
     35 H          11.2348   -6.9022   -1.9508 H       1  UNL1        0.0000
     36 H          11.7729   -5.8990   -3.2844 H       1  UNL1        0.0000
@<TRIPOS>BOND
     1    14    12    1
     2    23    20    1
     3    13    12    1
     4    36    33    1
     5    12    15    1
     6    12    11    1
     7    21    20    1
     8    30    29    1
     9    20    22    1
    10    20    11    1
    11     9     8    1
    12    33    34    1
    13    33    35    1
    14    33    24    1
    15     7     6    1
    16     8     6   ar
    17     8    10   ar
    18    11    10    1
    19    11    16    1
    20     6     5   ar
    21    10     3   ar
    22    29    32    1
    23    29    24    1
    24    29    31    1
    25     5    24    1
    26     5     4   ar
    27     3     4   ar
    28     3     1    1
    29    24    25    1
    30     4     2    1
    31    19    16    1
    32    16    17    1
    33    16    18    1
    34    25    28    1
    35    25    27    1
    36    25    26    1
