@<TRIPOS>MOLECULE
1,2
 36 36 0 0 0
SMALL
GASTEIGER

@<TRIPOS>ATOM
      1 S           7.7744   -8.7150    0.7445 S.3     1  UNL1        0.0000
      2 S           4.9700   -7.5346    0.3860 S.3     1  UNL1        0.0000
      3 C           6.4064   -9.6696    1.2016 C.ar    1  UNL1        0.0000
      4 C           5.1231   -9.1309    1.0340 C.ar    1  UNL1        0.0000
      5 C           3.9812   -9.8655    1.3836 C.ar    1  UNL1        0.0000
      6 C           4.1748  -11.1362    1.8988 C.ar    1  UNL1        0.0000
      7 H           3.3147  -11.7294    2.1760 H       1  UNL1        0.0000
      8 C           5.4473  -11.6687    2.0690 C.ar    1  UNL1        0.0000
      9 H           5.5509  -12.6648    2.4759 H       1  UNL1        0.0000
     10 C           6.5852  -10.9564    1.7290 C.ar    1  UNL1        0.0000
     11 SI          8.3362  -11.6364    1.9421 Si      1  UNL1        0.0000
     12 C           9.3680  -10.5899    3.1611 C.3     1  UNL1        0.0000
     13 H          10.3438  -11.0345    3.3360 H       1  UNL1        0.0000
     14 H           8.8687  -10.4940    4.1213 H       1  UNL1        0.0000
     15 H           9.5203   -9.5917    2.7670 H       1  UNL1        0.0000
     16 C           9.2354  -11.8191    0.2675 C.3     1  UNL1        0.0000
     17 H           9.3708  -10.8482   -0.1952 H       1  UNL1        0.0000
     18 H           8.6673  -12.4381   -0.4214 H       1  UNL1        0.0000
     19 H          10.2153  -12.2715    0.3916 H       1  UNL1        0.0000
     20 C           8.2137  -13.3929    2.6981 C.3     1  UNL1        0.0000
     21 H           9.2053  -13.8118    2.8363 H       1  UNL1        0.0000
     22 H           7.6603  -14.0704    2.0563 H       1  UNL1        0.0000
     23 H           7.7271  -13.3805    3.6679 H       1  UNL1        0.0000
     24 SI          2.2720   -9.0952    1.1402 Si      1  UNL1        0.0000
     25 C           1.9138   -8.7040   -0.6940 C.3     1  UNL1        0.0000
     26 H           2.0428   -9.5839   -1.3181 H       1  UNL1        0.0000
     27 H           2.5914   -7.9397   -1.0569 H       1  UNL1        0.0000
     28 H           0.8976   -8.3446   -0.8307 H       1  UNL1        0.0000
     29 C           0.9525  -10.3693    1.6949 C.3     1  UNL1        0.0000
     30 H           1.0620  -10.6333    2.7416 H       1  UNL1        0.0000
     31 H           1.0072  -11.2836    1.1131 H       1  UNL1        0.0000
     32 H          -0.0437   -9.9592    1.5647 H       1  UNL1        0.0000
     33 C           2.0347   -7.5457    2.2307 C.3     1  UNL1        0.0000
     34 H           1.0310   -7.1417    2.1323 H       1  UNL1        0.0000
     35 H           2.7369   -6.7715    1.9432 H       1  UNL1        0.0000
     36 H           2.2017   -7.7714    3.2804 H       1  UNL1        0.0000
@<TRIPOS>BOND
     1    26    25    1
     2    27    25    1
     3    28    25    1
     4    25    24    1
     5    18    16    1
     6    17    16    1
     7    16    19    1
     8    16    11    1
     9     2     4    1
    10     1     3    1
    11     4     3   ar
    12     4     5   ar
    13    31    29    1
    14    24     5    1
    15    24    29    1
    16    24    33    1
    17     3    10   ar
    18     5     6   ar
    19    32    29    1
    20    29    30    1
    21    10    11    1
    22    10     8   ar
    23     6     8   ar
    24     6     7    1
    25    11    20    1
    26    11    12    1
    27    35    33    1
    28    22    20    1
    29     8     9    1
    30    34    33    1
    31    33    36    1
    32    20    21    1
    33    20    23    1
    34    15    12    1
    35    12    13    1
    36    12    14    1
