@<TRIPOS>MOLECULE
1,3
 33 32 0 0 0
SMALL
GASTEIGER

@<TRIPOS>ATOM
      1 S           4.0152    5.7758    9.2816 S.3     1  UNL1        0.0000
      2 SI          0.0270    4.6834    9.7636 Si      1  UNL1        0.0000
      3 S           4.8242    2.5960   10.2925 S.3     1  UNL1        0.0000
      4 SI          4.6103    2.0427   13.3967 Si      1  UNL1        0.0000
      5 O           1.5155    5.3118    9.3405 O.2     1  UNL1        0.0000
      6 O           3.4652    2.8305   12.4832 O.2     1  UNL1        0.0000
      7 N           2.6633    4.0596   10.8148 N.2     1  UNL1        0.0000
      8 C           2.6735    4.9301    9.8439 C.2     1  UNL1        0.0000
      9 C           3.5989    3.2599   11.2417 C.2     1  UNL1        0.0000
     10 C          -0.0244    2.8210    9.3653 C.3     1  UNL1        0.0000
     11 H           0.2690    2.6288    8.3363 H       1  UNL1        0.0000
     12 H          -1.0184    2.4094    9.5074 H       1  UNL1        0.0000
     13 H           0.6569    2.2707   10.0082 H       1  UNL1        0.0000
     14 C           6.1910    3.1101   13.4631 C.3     1  UNL1        0.0000
     15 H           6.4521    3.4752   12.4723 H       1  UNL1        0.0000
     16 H           7.0425    2.5550   13.8427 H       1  UNL1        0.0000
     17 H           6.0495    3.9780   14.1022 H       1  UNL1        0.0000
     18 C          -1.1019    5.6881    8.6145 C.3     1  UNL1        0.0000
     19 H          -1.0154    6.7532    8.8034 H       1  UNL1        0.0000
     20 H          -2.1376    5.4067    8.7682 H       1  UNL1        0.0000
     21 H          -0.8635    5.5207    7.5691 H       1  UNL1        0.0000
     22 C           4.9713    0.2811   12.7635 C.3     1  UNL1        0.0000
     23 H           4.0512   -0.2249   12.4817 H       1  UNL1        0.0000
     24 H           5.4514   -0.3151   13.5331 H       1  UNL1        0.0000
     25 H           5.6193    0.2861   11.8923 H       1  UNL1        0.0000
     26 C          -0.3391    5.0064   11.6025 C.3     1  UNL1        0.0000
     27 H           0.3817    4.4937   12.2327 H       1  UNL1        0.0000
     28 H          -1.3303    4.6602   11.8771 H       1  UNL1        0.0000
     29 H          -0.2830    6.0667   11.8343 H       1  UNL1        0.0000
     30 C           3.7225    1.9853   15.0693 C.3     1  UNL1        0.0000
     31 H           3.4469    2.9750   15.4170 H       1  UNL1        0.0000
     32 H           4.3727    1.5394   15.8126 H       1  UNL1        0.0000
     33 H           2.8176    1.3898   15.0205 H       1  UNL1        0.0000
@<TRIPOS>BOND
     1    21    18    1
     2    11    10    1
     3    18    20    1
     4    18    19    1
     5    18     2    1
     6     1     8    1
     7     5     2    1
     8     5     8    1
     9    10    12    1
    10    10     2    1
    11    10    13    1
    12     2    26    1
    13     8     7    2
    14     3     9    1
    15     7     9    2
    16     9     6    1
    17    26    29    1
    18    26    28    1
    19    26    27    1
    20    25    22    1
    21    15    14    1
    22    23    22    1
    23     6     4    1
    24    22     4    1
    25    22    24    1
    26     4    14    1
    27     4    30    1
    28    14    16    1
    29    14    17    1
    30    33    30    1
    31    30    31    1
    32    30    32    1
