@<TRIPOS>MOLECULE
3,15
 38 40 0 0 0
SMALL
GASTEIGER

@<TRIPOS>ATOM
      1 B           1.5268    8.0580   11.5761 B       1  UNL1        0.0000
      2 H           1.9341    7.4844   12.5794 H       1  UNL1        0.0000
      3 S           0.5161    5.0260   11.5618 S.3     1  UNL1        0.0000
      4 N           1.7558    7.1309   10.3614 N.pl3   1  UNL1        0.0000
      5 C           1.4063    5.8325   10.3685 C.3     1  UNL1        0.0000
      6 N           1.7981    5.2700    9.2055 N.pl3   1  UNL1        0.0000
      7 C           2.3884    7.3834    9.1760 C.2     1  UNL1        0.0000
      8 H           2.7809    8.3515    8.9435 H       1  UNL1        0.0000
      9 C           2.4186    6.2375    8.4564 C.2     1  UNL1        0.0000
     10 H           2.8328    6.0284    7.4923 H       1  UNL1        0.0000
     11 C           1.6353    3.8886    8.8593 C.3     1  UNL1        0.0000
     12 H           1.3892    3.3387    9.7681 H       1  UNL1        0.0000
     13 H           2.5614    3.5025    8.4346 H       1  UNL1        0.0000
     14 H           0.8248    3.7630    8.1380 H       1  UNL1        0.0000
     15 S          -0.4027    7.1124   14.1304 S.3     1  UNL1        0.0000
     16 N           0.0168    8.3034   11.6864 N.pl3   1  UNL1        0.0000
     17 C          -0.7914    7.8698   12.6779 C.3     1  UNL1        0.0000
     18 N          -2.0711    8.1787   12.3553 N.pl3   1  UNL1        0.0000
     19 C          -0.7821    8.8637   10.7205 C.2     1  UNL1        0.0000
     20 H          -0.3672    9.2477    9.8112 H       1  UNL1        0.0000
     21 C          -2.0684    8.7965   11.1312 C.2     1  UNL1        0.0000
     22 H          -2.9709    9.1256   10.6594 H       1  UNL1        0.0000
     23 C          -3.2093    7.8557   13.1644 C.3     1  UNL1        0.0000
     24 H          -3.0817    6.8511   13.5711 H       1  UNL1        0.0000
     25 H          -4.1102    7.8997   12.5562 H       1  UNL1        0.0000
     26 H          -3.2961    8.5526   14.0013 H       1  UNL1        0.0000
     27 S           4.6639    8.0544   11.6030 S.2     1  UNL1        0.0000
     28 N           2.3045    9.3456   11.4006 N.ar    1  UNL1        0.0000
     29 C           3.6648    9.3616   11.4320 C.ar    1  UNL1        0.0000
     30 N           4.0702   10.6537   11.2820 N.ar    1  UNL1        0.0000
     31 C           1.8737   10.6427   11.2564 C.ar    1  UNL1        0.0000
     32 H           0.8329   10.8919   11.2311 H       1  UNL1        0.0000
     33 C           2.9547   11.4479   11.1789 C.ar    1  UNL1        0.0000
     34 H           3.0259   12.5091   11.0594 H       1  UNL1        0.0000
     35 C           5.4356   11.0825   11.2381 C.3     1  UNL1        0.0000
     36 H           5.6106   11.8718   11.9696 H       1  UNL1        0.0000
     37 H           5.6935   11.4509   10.2421 H       1  UNL1        0.0000
     38 H           6.0562   10.2170   11.4734 H       1  UNL1        0.0000
@<TRIPOS>BOND
     1    10     9    1
     2    14    11    1
     3    13    11    1
     4     9     7    2
     5     9     6    1
     6    11     6    1
     7    11    12    1
     8     8     7    1
     9     7     4    1
    10     6     5    1
    11    20    19    1
    12    37    35    1
    13     4     5    1
    14     4     1    1
    15     5     3    1
    16    22    21    1
    17    19    21    2
    18    19    16    1
    19    34    33    1
    20    21    18    1
    21    33    31   ar
    22    33    30   ar
    23    32    31    1
    24    35    30    1
    25    35    38    1
    26    35    36    1
    27    31    28   ar
    28    30    29   ar
    29    28    29   ar
    30    28     1    1
    31    29    27    2
    32     1    16    1
    33     1     2    1
    34    16    17    1
    35    18    17    1
    36    18    23    1
    37    25    23    1
    38    17    15    1
    39    23    24    1
    40    23    26    1
