@<TRIPOS>MOLECULE
2,14
 27 28 0 0 0
SMALL
GASTEIGER

@<TRIPOS>ATOM
      1 B           3.8640    5.1794    3.6399 B       1  UNL1        0.0000
      2 S           4.0584    2.3617    1.7844 S.3     1  UNL1        0.0000
      3 N           2.9776    4.8063    2.4413 N.pl3   1  UNL1        0.0000
      4 C           3.0401    3.7052    1.6709 C.3     1  UNL1        0.0000
      5 N           2.0904    3.7935    0.7073 N.pl3   1  UNL1        0.0000
      6 C           1.9704    5.5956    1.9470 C.2     1  UNL1        0.0000
      7 H           1.7267    6.5306    2.4057 H       1  UNL1        0.0000
      8 C           1.4216    4.9786    0.8763 C.2     1  UNL1        0.0000
      9 H           0.6206    5.2748    0.2316 H       1  UNL1        0.0000
     10 C           1.8519    2.8000   -0.2992 C.3     1  UNL1        0.0000
     11 H           0.8341    2.8980   -0.6709 H       1  UNL1        0.0000
     12 H           1.9968    1.8111    0.1370 H       1  UNL1        0.0000
     13 H           2.5558    2.9133   -1.1270 H       1  UNL1        0.0000
     14 S           6.8482    4.2203    2.4776 S.3     1  UNL1        0.0000
     15 N           4.9784    6.1162    3.1441 N.pl3   1  UNL1        0.0000
     16 C           6.1755    5.7563    2.6495 C.3     1  UNL1        0.0000
     17 N           6.8429    6.8707    2.2653 N.pl3   1  UNL1        0.0000
     18 C           4.8999    7.4819    3.0708 C.2     1  UNL1        0.0000
     19 H           4.0335    8.0042    3.4179 H       1  UNL1        0.0000
     20 C           6.0461    7.9543    2.5301 C.2     1  UNL1        0.0000
     21 H           6.3584    8.9547    2.3143 H       1  UNL1        0.0000
     22 C           8.1647    6.8680    1.7106 C.3     1  UNL1        0.0000
     23 H           8.4782    7.8921    1.5227 H       1  UNL1        0.0000
     24 H           8.1794    6.2993    0.7788 H       1  UNL1        0.0000
     25 H           8.8554    6.3888    2.4071 H       1  UNL1        0.0000
     26 H           3.2182    5.7211    4.4716 H       1  UNL1        0.0000
     27 H           4.4071    4.1371    4.0896 H       1  UNL1        0.0000
@<TRIPOS>BOND
     1    13    10    1
     2    11    10    1
     3    10    12    1
     4    10     5    1
     5     9     8    1
     6     5     8    1
     7     5     4    1
     8    24    22    1
     9     8     6    2
    10    23    22    1
    11     4     2    1
    12     4     3    1
    13    22    17    1
    14    22    25    1
    15     6     7    1
    16     6     3    1
    17    17    20    1
    18    17    16    1
    19    21    20    1
    20     3     1    1
    21    14    16    1
    22    20    18    2
    23    16    15    1
    24    18    15    1
    25    18    19    1
    26    15     1    1
    27     1    27    1
    28     1    26    1
