@<TRIPOS>MOLECULE
1,2
 19 18 0 0 0
SMALL
GASTEIGER

@<TRIPOS>ATOM
      1 S           1.5553   10.7832    2.9814 S.3     1  UNL1       -0.1641
      2 S          -1.8809   10.6305    2.4443 S.3     1  UNL1       -0.1641
      3 C           1.6417   10.5255    4.7807 C.3     1  UNL1       -0.0181
      4 C           1.0149   12.5357    2.9522 C.3     1  UNL1       -0.0058
      5 C          -0.3790   12.8316    3.4876 C.3     1  UNL1       -0.0350
      6 C          -1.5102   12.4232    2.5546 C.3     1  UNL1       -0.0058
      7 C          -2.4895   10.3447    4.1352 C.3     1  UNL1       -0.0181
      8 H           2.0509    9.5306    4.9188 H       1  UNL1        0.0340
      9 H           0.6593   10.5740    5.2393 H       1  UNL1        0.0340
     10 H           2.3059   11.2673    5.2158 H       1  UNL1        0.0340
     11 H           1.7624   13.0880    3.5232 H       1  UNL1        0.0376
     12 H           1.0919   12.8213    1.9031 H       1  UNL1        0.0376
     13 H          -0.4507   13.9135    3.6379 H       1  UNL1        0.0281
     14 H          -0.5127   12.3673    4.4668 H       1  UNL1        0.0281
     15 H          -1.2854   12.7133    1.5281 H       1  UNL1        0.0376
     16 H          -2.4415   12.9020    2.8598 H       1  UNL1        0.0376
     17 H          -2.8391    9.3181    4.1554 H       1  UNL1        0.0340
     18 H          -3.3126   11.0247    4.3372 H       1  UNL1        0.0340
     19 H          -1.7008   10.4674    4.8704 H       1  UNL1        0.0340
@<TRIPOS>BOND
     1    15     6    1
     2    12     4    1
     3     2     6    1
     4     2     7    1
     5     6    16    1
     6     6     5    1
     7     4     1    1
     8     4     5    1
     9     4    11    1
    10     1     3    1
    11     5    13    1
    12     5    14    1
    13     7    17    1
    14     7    18    1
    15     7    19    1
    16     3     8    1
    17     3    10    1
    18     3     9    1
