@<TRIPOS>MOLECULE
1,2
 12 11 0 0 0
SMALL
GASTEIGER

@<TRIPOS>ATOM
      1 S           4.6201   11.2297    1.5619 S.2     1  UNL1       -0.0271
      2 S           6.5912   10.3691    3.5318 S.3     1  UNL1       -0.0271
      3 N           4.8339    8.7217    2.4203 N.am    1  UNL1       -0.3245
      4 C           5.3579    7.6437    3.2218 C.3     1  UNL1        0.0013
      5 H           6.0753    8.0356    3.9386 H       1  UNL1        0.0428
      6 H           5.8524    6.9078    2.5829 H       1  UNL1        0.0428
      7 H           4.5403    7.1567    3.7562 H       1  UNL1        0.0428
      8 C           3.7542    8.3509    1.5399 C.3     1  UNL1        0.0013
      9 H           3.5085    9.1835    0.8854 H       1  UNL1        0.0428
     10 H           2.8701    8.0816    2.1229 H       1  UNL1        0.0428
     11 H           4.0557    7.4924    0.9367 H       1  UNL1        0.0428
     12 C           5.3094    9.9675    2.4974 C.2     1  UNL1        0.1195
@<TRIPOS>BOND
     1     9     8    1
     2    11     8    1
     3     8    10    1
     4     8     3    1
     5     1    12    2
     6     3    12    1
     7     3     4    1
     8    12     2    1
     9     6     4    1
    10     4     7    1
    11     4     5    1
