@<TRIPOS>MOLECULE
1,2
 12 11 0 0 0
SMALL
GASTEIGER

@<TRIPOS>ATOM
      1 S           8.2822   11.2012    1.0242 S.2     1  UNL1       -0.0271
      2 S           8.9637   12.8930    3.3214 S.3     1  UNL1       -0.0271
      3 N          10.5948   11.0595    2.3104 N.am    1  UNL1       -0.3245
      4 C          11.5541   11.3827    3.3369 C.3     1  UNL1        0.0013
      5 H          11.1051   12.0518    4.0667 H       1  UNL1        0.0428
      6 H          12.4274   11.8689    2.8948 H       1  UNL1        0.0428
      7 H          11.8746   10.4664    3.8360 H       1  UNL1        0.0428
      8 C          11.0172   10.0256    1.3987 C.3     1  UNL1        0.0013
      9 H          10.2848    9.9156    0.6026 H       1  UNL1        0.0428
     10 H          11.1153    9.0750    1.9287 H       1  UNL1        0.0428
     11 H          11.9845   10.2922    0.9682 H       1  UNL1        0.0428
     12 C           9.3957   11.6462    2.2258 C.2     1  UNL1        0.1195
@<TRIPOS>BOND
     1     9     8    1
     2    11     8    1
     3     1    12    2
     4     8    10    1
     5     8     3    1
     6    12     3    1
     7    12     2    1
     8     3     4    1
     9     6     4    1
    10     4     7    1
    11     4     5    1
