@<TRIPOS>MOLECULE
1,2
 12 11 0 0 0
SMALL
GASTEIGER

@<TRIPOS>ATOM
      1 S           4.8136    5.8378   12.8229 S.3     1  UNL1       -0.0523
      2 S           5.8254    6.5110   15.4485 S.3     1  UNL1       -0.0523
      3 N           3.2964    6.8787   14.7306 N.3     1  UNL1       -0.2817
      4 C           4.5106    6.4540   14.3701 C.3     1  UNL1        0.1734
      5 C           2.1747    6.8385   13.8279 C.3     1  UNL1       -0.0109
      6 H           2.5262    6.6713   12.8117 H       1  UNL1        0.0391
      7 H           1.6427    7.7905   13.8726 H       1  UNL1        0.0391
      8 H           1.4922    6.0301   14.1070 H       1  UNL1        0.0391
      9 C           3.0041    7.3596   16.0556 C.3     1  UNL1       -0.0109
     10 H           3.8900    7.2770   16.6813 H       1  UNL1        0.0391
     11 H           2.1973    6.7663   16.4921 H       1  UNL1        0.0391
     12 H           2.6932    8.4064   16.0111 H       1  UNL1        0.0391
@<TRIPOS>BOND
     1     6     5    1
     2     1     4    1
     3     5     7    1
     4     5     8    1
     5     5     3    1
     6     4     3    1
     7     4     2    1
     8     3     9    1
     9    12     9    1
    10     9    11    1
    11     9    10    1
