@<TRIPOS>MOLECULE
1,2
 12 11 0 0 0
SMALL
GASTEIGER

@<TRIPOS>ATOM
      1 S          -0.1980   -0.0096    3.9836 S.3     1  UNL1       -0.0523
      2 S          -2.2294    0.8309    2.0784 S.3     1  UNL1       -0.0523
      3 N          -0.9971   -1.5171    1.9400 N.3     1  UNL1       -0.2817
      4 C          -1.1243   -0.3577    2.5920 C.3     1  UNL1        0.1734
      5 C          -1.7778   -1.8413    0.7727 C.3     1  UNL1       -0.0109
      6 H          -2.4848   -1.0403    0.5694 H       1  UNL1        0.0391
      7 H          -2.3236   -2.7725    0.9407 H       1  UNL1        0.0391
      8 H          -1.1220   -1.9681   -0.0920 H       1  UNL1        0.0391
      9 C          -0.0508   -2.5273    2.3409 C.3     1  UNL1       -0.0109
     10 H           0.5777   -2.1459    3.1423 H       1  UNL1        0.0391
     11 H           0.5757   -2.8001    1.4891 H       1  UNL1        0.0391
     12 H          -0.5771   -3.4187    2.6918 H       1  UNL1        0.0391
@<TRIPOS>BOND
     1     8     5    1
     2     6     5    1
     3     5     7    1
     4     5     3    1
     5    11     9    1
     6     3     9    1
     7     3     4    1
     8     2     4    1
     9     9    12    1
    10     9    10    1
    11     4     1    1
