@<TRIPOS>MOLECULE
1,2
 12 11 0 0 0
SMALL
GASTEIGER

@<TRIPOS>ATOM
      1 S           2.7467    3.5846   20.1023 S.3     1  UNL1       -0.0561
      2 S           5.2691    5.3331   20.8381 S.3     1  UNL1       -0.0561
      3 C           4.2870    3.3417   19.2841 C.2     1  UNL1        0.0034
      4 C           5.3557    4.0895   19.5912 C.2     1  UNL1        0.0034
      5 C           4.3144    2.2578   18.2502 C.3     1  UNL1       -0.0322
      6 H           4.7099    2.6343   17.3083 H       1  UNL1        0.0283
      7 H           3.3087    1.8815   18.0896 H       1  UNL1        0.0283
      8 H           4.9483    1.4372   18.5869 H       1  UNL1        0.0283
      9 C           6.6829    3.9293   18.9149 C.3     1  UNL1       -0.0322
     10 H           6.6008    4.1687   17.8551 H       1  UNL1        0.0283
     11 H           7.0359    2.9032   19.0077 H       1  UNL1        0.0283
     12 H           7.4034    4.6015   19.3708 H       1  UNL1        0.0283
@<TRIPOS>BOND
     1     6     5    1
     2    10     9    1
     3     7     5    1
     4     5     8    1
     5     5     3    1
     6     9    11    1
     7     9    12    1
     8     9     4    1
     9     3     4    2
    10     3     1    1
    11     4     2    1
