@<TRIPOS>MOLECULE
1,2
 12 11 0 0 0
SMALL
GASTEIGER

@<TRIPOS>ATOM
      1 S           0.6154    5.4099   21.8022 S.3     1  UNL1       -0.0561
      2 S           2.7560    7.1132   20.2544 S.3     1  UNL1       -0.0561
      3 C           1.0355    7.3735   19.9887 C.2     1  UNL1        0.0034
      4 C           0.1215    6.6261   20.6309 C.2     1  UNL1        0.0034
      5 C          -1.3544    6.7835   20.4255 C.3     1  UNL1       -0.0322
      6 H          -1.6789    7.7800   20.7245 H       1  UNL1        0.0283
      7 H          -1.8830    6.0450   21.0203 H       1  UNL1        0.0283
      8 H          -1.6092    6.6437   19.3760 H       1  UNL1        0.0283
      9 C           0.6719    8.4369   18.9990 C.3     1  UNL1       -0.0322
     10 H           0.1636    7.9992   18.1405 H       1  UNL1        0.0283
     11 H           1.5727    8.9372   18.6572 H       1  UNL1        0.0283
     12 H           0.0049    9.1689   19.4523 H       1  UNL1        0.0283
@<TRIPOS>BOND
     1    10     9    1
     2    11     9    1
     3     9    12    1
     4     9     3    1
     5     8     5    1
     6     3     2    1
     7     3     4    2
     8     5     4    1
     9     5     6    1
    10     5     7    1
    11     4     1    1
