@<TRIPOS>MOLECULE
1,2
 12 12 0 0 0
SMALL
GASTEIGER

@<TRIPOS>ATOM
      1 S           0.4714    3.0307   12.3388 S.3     1  UNL1       -0.0508
      2 S           0.9810    4.9982    9.8547 S.3     1  UNL1       -0.0508
      3 C          -0.8536    3.5599   11.3168 C.ar    1  UNL1        0.0332
      4 C          -0.6265    4.4009   10.2180 C.ar    1  UNL1        0.0332
      5 C          -1.6925    4.7583    9.3978 C.ar    1  UNL1       -0.0464
      6 H          -1.4934    5.4029    8.5549 H       1  UNL1        0.0629
      7 C          -2.9700    4.3033    9.6607 C.ar    1  UNL1       -0.0606
      8 H          -3.7886    4.5953    9.0173 H       1  UNL1        0.0618
      9 C          -3.1969    3.4733   10.7492 C.ar    1  UNL1       -0.0606
     10 H          -4.1945    3.1137   10.9608 H       1  UNL1        0.0618
     11 C          -2.1450    3.1027   11.5645 C.ar    1  UNL1       -0.0464
     12 H          -2.2997    2.4533   12.4123 H       1  UNL1        0.0629
@<TRIPOS>BOND
     1     6     5    1
     2     8     7    1
     3     5     7   ar
     4     5     4   ar
     5     7     9   ar
     6     2     4    1
     7     4     3   ar
     8     9    10    1
     9     9    11   ar
    10     3    11   ar
    11     3     1    1
    12    11    12    1
