@<TRIPOS>MOLECULE
1,2
 12 12 0 0 0
SMALL
GASTEIGER

@<TRIPOS>ATOM
      1 S          10.8573    5.1281   31.0469 S.3     1  UNL1       -0.0508
      2 S          12.0065    7.6077   32.8113 S.3     1  UNL1       -0.0508
      3 C          10.2584    6.7765   30.8261 C.ar    1  UNL1        0.0332
      4 C          10.7517    7.8443   31.5959 C.ar    1  UNL1        0.0332
      5 C          10.2136    9.1154   31.4186 C.ar    1  UNL1       -0.0464
      6 H          10.6014    9.9196   32.0254 H       1  UNL1        0.0629
      7 C           9.2149    9.3431   30.4909 C.ar    1  UNL1       -0.0606
      8 H           8.8166   10.3404   30.3627 H       1  UNL1        0.0618
      9 C           8.7273    8.2908   29.7317 C.ar    1  UNL1       -0.0606
     10 H           7.9443    8.4591   29.0051 H       1  UNL1        0.0618
     11 C           9.2428    7.0200   29.9069 C.ar    1  UNL1       -0.0464
     12 H           8.8723    6.1857   29.3322 H       1  UNL1        0.0629
@<TRIPOS>BOND
     1    10     9    1
     2    12    11    1
     3     9    11   ar
     4     9     7   ar
     5    11     3   ar
     6     8     7    1
     7     7     5   ar
     8     3     1    1
     9     3     4   ar
    10     5     4   ar
    11     5     6    1
    12     4     2    1
