@<TRIPOS>MOLECULE
1,5
 5 4 0 0 0
SMALL
GASTEIGER

@<TRIPOS>ATOM
      1 S           0.2248    7.9390    4.0686 S.3     1  UNL1        0.0000
      2 S           1.5780    9.2313    4.8339 S.3     1  UNL1        0.0000
      3 S           3.1660    8.0470    5.4264 S.3     1  UNL1        0.0000
      4 S           4.0929    7.5799    3.6441 S.3     1  UNL1        0.0000
      5 S           2.9881    6.0764    2.8541 S.3     1  UNL1        0.0000
@<TRIPOS>BOND
     1     5     4    1
     2     4     3    1
     3     1     2    1
     4     2     3    1
