@<TRIPOS>MOLECULE
1,3,4
 47 49 0 0 0
SMALL
GASTEIGER

@<TRIPOS>ATOM
      1 P           1.4424   -3.3289   -2.7735 P.3     1  UNL1        0.0000
      2 SI          2.3003   -1.8688    1.0134 Si      1  UNL1        0.0000
      3 O           2.9021   -2.7476   -5.1784 O.3     1  UNL1        0.0000
      4 O           4.2235   -3.3406   -2.6609 O.3     1  UNL1        0.0000
      5 O           1.4737   -2.3913   -0.3403 O.3     1  UNL1        0.0000
      6 C           1.1514   -4.1271   -4.3664 C.ar    1  UNL1        0.0000
      7 C           0.2567   -5.1664   -4.5822 C.ar    1  UNL1        0.0000
      8 C           0.1748   -5.7592   -5.8265 C.ar    1  UNL1        0.0000
      9 C           1.0080   -5.3271   -6.8509 C.ar    1  UNL1        0.0000
     10 C           1.9227   -4.3187   -6.6444 C.ar    1  UNL1        0.0000
     11 C           2.0282   -3.7025   -5.3883 C.ar    1  UNL1        0.0000
     12 C           2.3763   -4.5928   -1.8953 C.ar    1  UNL1        0.0000
     13 C           1.8618   -5.6754   -1.2030 C.ar    1  UNL1        0.0000
     14 C           2.7313   -6.5900   -0.6375 C.ar    1  UNL1        0.0000
     15 C           4.1024   -6.4210   -0.7879 C.ar    1  UNL1        0.0000
     16 C           4.6245   -5.3450   -1.4740 C.ar    1  UNL1        0.0000
     17 C           3.7657   -4.3903   -2.0401 C.ar    1  UNL1        0.0000
     18 C          -0.0948   -3.1101   -1.8691 C.ar    1  UNL1        0.0000
     19 C          -1.3972   -3.3313   -2.2842 C.ar    1  UNL1        0.0000
     20 C          -2.4385   -3.0652   -1.4111 C.ar    1  UNL1        0.0000
     21 C          -2.1748   -2.5636   -0.1461 C.ar    1  UNL1        0.0000
     22 C          -0.8764   -2.3162    0.2682 C.ar    1  UNL1        0.0000
     23 C           0.1744   -2.5867   -0.5946 C.ar    1  UNL1        0.0000
     24 C           1.9009   -3.0676    2.4461 C.3     1  UNL1        0.0000
     25 C           1.8128   -0.0653    1.3980 C.3     1  UNL1        0.0000
     26 C           4.1161   -2.0205    0.5058 C.3     1  UNL1        0.0000
     27 H          -0.3582   -5.5217   -3.7674 H       1  UNL1        0.0000
     28 H          -0.5223   -6.5654   -5.9977 H       1  UNL1        0.0000
     29 H           0.9483   -5.7973   -7.8219 H       1  UNL1        0.0000
     30 H           2.5890   -3.9962   -7.4309 H       1  UNL1        0.0000
     31 H           0.7905   -5.7894   -1.1016 H       1  UNL1        0.0000
     32 H           2.3468   -7.4338   -0.0849 H       1  UNL1        0.0000
     33 H           4.7773   -7.1441   -0.3524 H       1  UNL1        0.0000
     34 H           5.6903   -5.2135   -1.5845 H       1  UNL1        0.0000
     35 H          -1.5926   -3.7039   -3.2781 H       1  UNL1        0.0000
     36 H          -3.4576   -3.2464   -1.7178 H       1  UNL1        0.0000
     37 H          -2.9927   -2.3556    0.5277 H       1  UNL1        0.0000
     38 H          -0.6766   -1.9117    1.2471 H       1  UNL1        0.0000
     39 H           2.0313   -4.1005    2.1328 H       1  UNL1        0.0000
     40 H           0.8836   -2.9641    2.8119 H       1  UNL1        0.0000
     41 H           2.5645   -2.8943    3.2864 H       1  UNL1        0.0000
     42 H           0.7850    0.0382    1.7360 H       1  UNL1        0.0000
     43 H           1.9280    0.5405    0.5023 H       1  UNL1        0.0000
     44 H           2.4517    0.3569    2.1672 H       1  UNL1        0.0000
     45 H           4.3993   -3.0533    0.3233 H       1  UNL1        0.0000
     46 H           4.7713   -1.6285    1.2770 H       1  UNL1        0.0000
     47 H           4.3085   -1.4568   -0.4055 H       1  UNL1        0.0000
@<TRIPOS>BOND
     1    29     9    1
     2    30    10    1
     3     9    10   ar
     4     9     8   ar
     5    10    11   ar
     6    28     8    1
     7     8     7   ar
     8    11     3    1
     9    11     6   ar
    10     7     6   ar
    11     7    27    1
    12     6     1    1
    13    35    19    1
    14     1    12    1
    15     1    18    1
    16     4    17    1
    17    19    18   ar
    18    19    20   ar
    19    17    12   ar
    20    17    16   ar
    21    12    13   ar
    22    18    23   ar
    23    36    20    1
    24    34    16    1
    25    16    15   ar
    26    20    21   ar
    27    13    31    1
    28    13    14   ar
    29    15    14   ar
    30    15    33    1
    31    14    32    1
    32    23     5    1
    33    23    22   ar
    34    47    26    1
    35     5     2    1
    36    21    22   ar
    37    21    37    1
    38    22    38    1
    39    45    26    1
    40    43    25    1
    41    26     2    1
    42    26    46    1
    43     2    25    1
    44     2    24    1
    45    25    42    1
    46    25    44    1
    47    39    24    1
    48    24    40    1
    49    24    41    1
