@<TRIPOS>MOLECULE
1,7
 66 66 0 0 0
SMALL
GASTEIGER

@<TRIPOS>ATOM
      1 SI          2.3567   13.8360    5.5694 Si      1  UNL1        0.0000
      2 H           3.2052   13.4798    6.7673 H       1  UNL1        0.0000
      3 SI          2.7504   10.7411    5.7512 Si      1  UNL1        0.0000
      4 SI          3.6261   12.3617    3.1418 Si      1  UNL1        0.0000
      5 SI          0.5371   11.9305    3.8135 Si      1  UNL1        0.0000
      6 O           0.8207   13.5531    6.4077 O.3     1  UNL1        0.0000
      7 N           0.3520   15.7766    6.3749 N.pl3   1  UNL1        0.0000
      8 C           0.0871   14.5558    6.6791 C.3     1  UNL1        0.0000
      9 H          -0.8491   14.3188    7.2012 H       1  UNL1        0.0000
     10 C          -0.4990   16.7729    6.9073 C.ar    1  UNL1        0.0000
     11 C          -1.1707   17.6600    6.0538 C.ar    1  UNL1        0.0000
     12 C          -1.9671   18.6530    6.5982 C.ar    1  UNL1        0.0000
     13 H          -2.4805   19.3348    5.9347 H       1  UNL1        0.0000
     14 C          -2.1303   18.7918    7.9698 C.ar    1  UNL1        0.0000
     15 C          -1.4777   17.8949    8.7977 C.ar    1  UNL1        0.0000
     16 H          -1.5969   17.9768    9.8693 H       1  UNL1        0.0000
     17 C          -0.6712   16.8814    8.2947 C.ar    1  UNL1        0.0000
     18 C          -1.0348   17.5389    4.5705 C.3     1  UNL1        0.0000
     19 H          -1.7117   18.2214    4.0631 H       1  UNL1        0.0000
     20 H          -1.2463   16.5219    4.2433 H       1  UNL1        0.0000
     21 H          -0.0108   17.7740    4.2722 H       1  UNL1        0.0000
     22 C          -3.0084   19.8707    8.5260 C.3     1  UNL1        0.0000
     23 H          -2.8648   19.9765    9.5983 H       1  UNL1        0.0000
     24 H          -4.0560   19.6324    8.3419 H       1  UNL1        0.0000
     25 H          -2.7953   20.8242    8.0463 H       1  UNL1        0.0000
     26 C          -0.0089   15.9529    9.2742 C.3     1  UNL1        0.0000
     27 H           0.3190   16.5080   10.1524 H       1  UNL1        0.0000
     28 H           0.8467   15.4421    8.8378 H       1  UNL1        0.0000
     29 H          -0.7161   15.1953    9.6135 H       1  UNL1        0.0000
     30 C           2.3111   12.1877    4.5411 C.3     1  UNL1        0.0000
     31 C           4.6059   10.7302    6.2272 C.3     1  UNL1        0.0000
     32 H           4.8987   11.6605    6.7009 H       1  UNL1        0.0000
     33 H           5.2506   10.5795    5.3697 H       1  UNL1        0.0000
     34 H           4.8104    9.9296    6.9319 H       1  UNL1        0.0000
     35 C           2.3910    9.0140    5.0137 C.3     1  UNL1        0.0000
     36 H           2.7845    8.2391    5.6642 H       1  UNL1        0.0000
     37 H           2.8482    8.8835    4.0416 H       1  UNL1        0.0000
     38 H           1.3278    8.8357    4.9042 H       1  UNL1        0.0000
     39 C           1.8355   10.7765    7.4307 C.3     1  UNL1        0.0000
     40 H           2.0776    9.8972    8.0218 H       1  UNL1        0.0000
     41 H           0.7610   10.8037    7.3065 H       1  UNL1        0.0000
     42 H           2.1143   11.6495    8.0089 H       1  UNL1        0.0000
     43 C           5.1255   13.3251    3.8152 C.3     1  UNL1        0.0000
     44 H           5.9448   13.3473    3.1031 H       1  UNL1        0.0000
     45 H           5.5030   12.9168    4.7430 H       1  UNL1        0.0000
     46 H           4.8129   14.3454    4.0062 H       1  UNL1        0.0000
     47 C           3.0547   13.4043    1.6504 C.3     1  UNL1        0.0000
     48 H           2.7456   14.3921    1.9685 H       1  UNL1        0.0000
     49 H           2.2283   12.9553    1.1124 H       1  UNL1        0.0000
     50 H           3.8699   13.5315    0.9436 H       1  UNL1        0.0000
     51 C           4.2509   10.7060    2.4180 C.3     1  UNL1        0.0000
     52 H           4.9614   10.8934    1.6183 H       1  UNL1        0.0000
     53 H           3.4400   10.1220    1.9988 H       1  UNL1        0.0000
     54 H           4.7504   10.0950    3.1604 H       1  UNL1        0.0000
     55 C           0.5295   10.7097    2.3415 C.3     1  UNL1        0.0000
     56 H          -0.4822   10.5769    1.9710 H       1  UNL1        0.0000
     57 H           0.8991    9.7334    2.6299 H       1  UNL1        0.0000
     58 H           1.1347   11.0586    1.5142 H       1  UNL1        0.0000
     59 C          -0.2368   13.5627    3.1930 C.3     1  UNL1        0.0000
     60 H           0.2622   13.9398    2.3089 H       1  UNL1        0.0000
     61 H          -0.1750   14.3359    3.9558 H       1  UNL1        0.0000
     62 H          -1.2851   13.4269    2.9416 H       1  UNL1        0.0000
     63 C          -0.7614   11.2005    5.0180 C.3     1  UNL1        0.0000
     64 H          -0.8621   11.8072    5.9096 H       1  UNL1        0.0000
     65 H          -0.5091   10.1928    5.3280 H       1  UNL1        0.0000
     66 H          -1.7363   11.1572    4.5394 H       1  UNL1        0.0000
@<TRIPOS>BOND
     1    50    47    1
     2    49    47    1
     3    58    55    1
     4    52    51    1
     5    47    48    1
     6    47     4    1
     7    56    55    1
     8    53    51    1
     9    60    59    1
    10    55    57    1
    11    55     5    1
    12    51     4    1
    13    51    54    1
    14    62    59    1
    15    44    43    1
    16     4    43    1
    17     4    30    1
    18    59     5    1
    19    59    61    1
    20     5    30    1
    21     5    63    1
    22    43    46    1
    23    43    45    1
    24    37    35    1
    25    19    18    1
    26    20    18    1
    27    21    18    1
    28    66    63    1
    29    30     1    1
    30    30     3    1
    31    18    11    1
    32    38    35    1
    33    35    36    1
    34    35     3    1
    35    63    65    1
    36    63    64    1
    37    33    31    1
    38     1     6    1
    39     1     2    1
    40     3    31    1
    41     3    39    1
    42    13    12    1
    43    11    12   ar
    44    11    10   ar
    45    31    32    1
    46    31    34    1
    47     7     8    1
    48     7    10    1
    49     6     8    1
    50    12    14   ar
    51     8     9    1
    52    10    17   ar
    53    41    39    1
    54    39    42    1
    55    39    40    1
    56    14    22    1
    57    14    15   ar
    58    25    22    1
    59    17    15   ar
    60    17    26    1
    61    24    22    1
    62    22    23    1
    63    15    16    1
    64    28    26    1
    65    26    29    1
    66    26    27    1
