@<TRIPOS>MOLECULE
3,20
 20 19 0 0 0
SMALL
GASTEIGER

@<TRIPOS>ATOM
      1 SI          3.0612    5.6382   10.7996 Si      1  UNL1        0.0000
      2 H           3.7022    6.7153   11.6330 H       1  UNL1        0.0000
      3 SI          4.3981    3.8086    8.4757 Si      1  UNL1        0.0000
      4 C           1.7092    6.4795    9.7442 C.3     1  UNL1        0.0000
      5 H           2.1422    7.1014    8.9674 H       1  UNL1        0.0000
      6 H           1.0699    7.1084   10.3553 H       1  UNL1        0.0000
      7 H           1.0774    5.7431    9.2587 H       1  UNL1        0.0000
      8 C           2.1359    4.4911   12.0228 C.3     1  UNL1        0.0000
      9 H           1.7846    3.5908   11.5280 H       1  UNL1        0.0000
     10 H           1.2700    4.9924   12.4441 H       1  UNL1        0.0000
     11 H           2.7698    4.1855   12.8494 H       1  UNL1        0.0000
     12 C           3.4014    2.1558    8.7759 C.3     1  UNL1        0.0000
     13 H           3.7573    1.6397    9.6649 H       1  UNL1        0.0000
     14 H           3.4890    1.4706    7.9362 H       1  UNL1        0.0000
     15 H           2.3439    2.3654    8.9182 H       1  UNL1        0.0000
     16 C           3.5009    4.5683    6.9177 C.3     1  UNL1        0.0000
     17 H           2.4303    4.6443    7.0884 H       1  UNL1        0.0000
     18 H           3.6488    3.9619    6.0271 H       1  UNL1        0.0000
     19 H           3.8697    5.5691    6.7060 H       1  UNL1        0.0000
     20 N           4.2623    4.8824    9.8665 N.3     1  UNL1        0.0000
@<TRIPOS>BOND
     1    18    16    1
     2    19    16    1
     3    16    17    1
     4    16     3    1
     5    14    12    1
     6     3    12    1
     7     3    20    1
     8    12    15    1
     9    12    13    1
    10     5     4    1
    11     7     4    1
    12     4     6    1
    13     4     1    1
    14    20     1    1
    15     1     2    1
    16     1     8    1
    17     9     8    1
    18     8    10    1
    19     8    11    1
