@<TRIPOS>MOLECULE
1,2
 27 27 0 0 0
SMALL
GASTEIGER

@<TRIPOS>ATOM
      1 SI          2.6003    4.6391    1.7697 Si      1  UNL1        0.0000
      2 N           3.6317    5.0194    3.0372 N.pl3   1  UNL1        0.0000
      3 C           4.8448    4.5679    3.5085 C.ar    1  UNL1        0.0000
      4 C           4.8984    3.5619    4.4921 C.ar    1  UNL1        0.0000
      5 C           6.1274    3.1311    4.9659 C.ar    1  UNL1        0.0000
      6 H           6.1579    2.3620    5.7259 H       1  UNL1        0.0000
      7 C           7.3078    3.6652    4.4801 C.ar    1  UNL1        0.0000
      8 H           8.2583    3.3232    4.8623 H       1  UNL1        0.0000
      9 C           7.2582    4.6303    3.4907 C.ar    1  UNL1        0.0000
     10 H           8.1772    5.0377    3.0914 H       1  UNL1        0.0000
     11 C           6.0475    5.0842    2.9921 C.ar    1  UNL1        0.0000
     12 C           6.0213    6.0996    1.8893 C.3     1  UNL1        0.0000
     13 H           6.8869    6.7569    1.9482 H       1  UNL1        0.0000
     14 H           5.1049    6.6887    1.9312 H       1  UNL1        0.0000
     15 H           6.0481    5.5967    0.9226 H       1  UNL1        0.0000
     16 C           3.6334    2.9438    5.0067 C.3     1  UNL1        0.0000
     17 H           3.7765    2.5362    6.0061 H       1  UNL1        0.0000
     18 H           3.3250    2.1301    4.3495 H       1  UNL1        0.0000
     19 H           2.8230    3.6711    5.0242 H       1  UNL1        0.0000
     20 C           3.2534    4.8153   -0.0251 C.3     1  UNL1        0.0000
     21 H           4.0180    4.0676   -0.2100 H       1  UNL1        0.0000
     22 H           3.6904    5.7931   -0.2012 H       1  UNL1        0.0000
     23 H           2.4613    4.6609   -0.7509 H       1  UNL1        0.0000
     24 C           1.5709    3.0219    1.8639 C.3     1  UNL1        0.0000
     25 H           2.2058    2.1513    1.7251 H       1  UNL1        0.0000
     26 H           0.8044    2.9989    1.0944 H       1  UNL1        0.0000
     27 H           1.0773    2.9280    2.8268 H       1  UNL1        0.0000
@<TRIPOS>BOND
     1    23    20    1
     2    21    20    1
     3    22    20    1
     4    20     1    1
     5    15    12    1
     6    26    24    1
     7    25    24    1
     8     1    24    1
     9     1     2    1
    10    24    27    1
    11    12    14    1
    12    12    13    1
    13    12    11    1
    14    11     9   ar
    15    11     3   ar
    16     2     3    1
    17    10     9    1
    18     9     7   ar
    19     3     4   ar
    20    18    16    1
    21     7     8    1
    22     7     5   ar
    23     4     5   ar
    24     4    16    1
    25     5     6    1
    26    16    19    1
    27    16    17    1
