@<TRIPOS>MOLECULE
1,3
 24 24 0 0 0
SMALL
GASTEIGER

@<TRIPOS>ATOM
      1 SI          1.5969   10.1823   16.1116 Si      1  UNL1        0.0000
      2 CL          0.9166    9.8512   18.0261 Cl      1  UNL1        0.0000
      3 N           0.5284    9.8610   14.8617 N.pl3   1  UNL1        0.0000
      4 C          -0.6792   10.3485   14.4065 C.ar    1  UNL1        0.0000
      5 C          -1.8861    9.8657   14.9440 C.ar    1  UNL1        0.0000
      6 C          -3.0901   10.3529   14.4606 C.ar    1  UNL1        0.0000
      7 H          -4.0142    9.9734   14.8743 H       1  UNL1        0.0000
      8 C          -3.1254   11.3182   13.4705 C.ar    1  UNL1        0.0000
      9 H          -4.0713   11.6863   13.1014 H       1  UNL1        0.0000
     10 C          -1.9385   11.8211   12.9687 C.ar    1  UNL1        0.0000
     11 H          -1.9578   12.5924   12.2106 H       1  UNL1        0.0000
     12 C          -0.7150   11.3561   13.4256 C.ar    1  UNL1        0.0000
     13 C          -1.8681    8.8591   16.0540 C.3     1  UNL1        0.0000
     14 H          -0.9941    8.2107   15.9789 H       1  UNL1        0.0000
     15 H          -2.7751    8.2576   16.0470 H       1  UNL1        0.0000
     16 H          -1.8101    9.3699   17.0152 H       1  UNL1        0.0000
     17 C           0.5598   11.9421   12.8968 C.3     1  UNL1        0.0000
     18 H           0.4219   12.3301   11.8888 H       1  UNL1        0.0000
     19 H           1.3594   11.2026   12.8942 H       1  UNL1        0.0000
     20 H           0.8806   12.7667   13.5344 H       1  UNL1        0.0000
     21 C           2.5022   11.8671   16.1640 C.3     1  UNL1        0.0000
     22 H           1.7912   12.6776   16.2980 H       1  UNL1        0.0000
     23 H           3.0433   12.0366   15.2384 H       1  UNL1        0.0000
     24 H           3.2114   11.9043   16.9854 H       1  UNL1        0.0000
@<TRIPOS>BOND
     1    18    17    1
     2    11    10    1
     3    19    17    1
     4    17    12    1
     5    17    20    1
     6    10    12   ar
     7    10     8   ar
     8     9     8    1
     9    12     4   ar
    10     8     6   ar
    11     4     3    1
    12     4     5   ar
    13     6     7    1
    14     6     5   ar
    15     3     1    1
    16     5    13    1
    17    23    21    1
    18    14    13    1
    19    15    13    1
    20    13    16    1
    21     1    21    1
    22     1     2    1
    23    21    22    1
    24    21    24    1
