@<TRIPOS>MOLECULE
1,3
 56 58 0 0 0
SMALL
GASTEIGER

@<TRIPOS>ATOM
      1 SI          5.0862    4.0054   12.0480 Si      1  UNL1        0.0000
      2 N           5.0659    3.2809   13.6520 N.3     1  UNL1        0.0000
      3 N           3.0120    2.4544   12.9763 N.pl3   1  UNL1        0.0000
      4 N           5.9619    5.6277   12.3517 N.3     1  UNL1        0.0000
      5 N           6.9329    3.8908   11.6633 N.3     1  UNL1        0.0000
      6 C           7.0678    5.1984   11.7913 C.3     1  UNL1        0.0000
      7 C           6.1113    3.4200   14.6321 C.3     1  UNL1        0.0000
      8 H           6.6325    2.4731   14.8107 H       1  UNL1        0.0000
      9 H           6.8262    4.1448   14.2537 H       1  UNL1        0.0000
     10 H           5.7138    3.7862   15.5828 H       1  UNL1        0.0000
     11 C           5.5190    6.9539   12.7201 C.3     1  UNL1        0.0000
     12 C           6.6770    7.9182   13.0018 C.3     1  UNL1        0.0000
     13 H           7.3856    7.4806   13.7021 H       1  UNL1        0.0000
     14 H           6.2766    8.8273   13.4447 H       1  UNL1        0.0000
     15 H           7.2038    8.1906   12.0915 H       1  UNL1        0.0000
     16 C           7.8795    2.8997   11.2083 C.3     1  UNL1        0.0000
     17 C           3.9988    2.4794   13.9076 C.3     1  UNL1        0.0000
     18 C           1.9957    1.6109   13.2034 C.2     1  UNL1        0.0000
     19 H           1.2326    1.6103   12.4437 H       1  UNL1        0.0000
     20 C           8.0929    6.5296   10.0019 C.ar    1  UNL1        0.0000
     21 H           7.2034    6.3368    9.4203 H       1  UNL1        0.0000
     22 C           2.8576    0.8546   15.2821 C.2     1  UNL1        0.0000
     23 H           2.8010    0.2531   16.1768 H       1  UNL1        0.0000
     24 C           3.9248    1.7047   15.0709 C.2     1  UNL1        0.0000
     25 H           4.7069    1.7610   15.8089 H       1  UNL1        0.0000
     26 C           4.6300    7.5196   11.6112 C.3     1  UNL1        0.0000
     27 H           5.2003    7.6535   10.6948 H       1  UNL1        0.0000
     28 H           3.8204    6.8244   11.4066 H       1  UNL1        0.0000
     29 H           4.2179    8.4802   11.9095 H       1  UNL1        0.0000
     30 C           7.1914    1.5419   11.3735 C.3     1  UNL1        0.0000
     31 H           6.9667    1.3689   12.4221 H       1  UNL1        0.0000
     32 H           6.2558    1.5215   10.8248 H       1  UNL1        0.0000
     33 H           7.8354    0.7433   11.0135 H       1  UNL1        0.0000
     34 C           9.3270    6.2635   12.0477 C.ar    1  UNL1        0.0000
     35 H           9.3989    5.8784   13.0549 H       1  UNL1        0.0000
     36 C           8.2858    3.1216    9.7444 C.3     1  UNL1        0.0000
     37 H           7.4070    3.2546    9.1192 H       1  UNL1        0.0000
     38 H           8.9097    4.0071    9.6478 H       1  UNL1        0.0000
     39 H           8.8465    2.2644    9.3795 H       1  UNL1        0.0000
     40 C           1.8722    0.7959   14.3062 C.2     1  UNL1        0.0000
     41 H           1.0261    0.1323   14.4022 H       1  UNL1        0.0000
     42 C           8.1894    6.0097   11.2898 C.ar    1  UNL1        0.0000
     43 C           9.1407    2.9087   12.0871 C.3     1  UNL1        0.0000
     44 H           9.7350    3.8007   11.9099 H       1  UNL1        0.0000
     45 H           9.7526    2.0398   11.8566 H       1  UNL1        0.0000
     46 H           8.8655    2.8701   13.1385 H       1  UNL1        0.0000
     47 C           9.1254    7.2873    9.4799 C.ar    1  UNL1        0.0000
     48 H           9.0435    7.6881    8.4805 H       1  UNL1        0.0000
     49 C          10.3571    7.0219   11.5199 C.ar    1  UNL1        0.0000
     50 H          11.2379    7.2161   12.1141 H       1  UNL1        0.0000
     51 C           4.6992    6.7843   14.0031 C.3     1  UNL1        0.0000
     52 H           3.9181    6.0528   13.8316 H       1  UNL1        0.0000
     53 H           5.3345    6.4377   14.8149 H       1  UNL1        0.0000
     54 H           4.2465    7.7298   14.2890 H       1  UNL1        0.0000
     55 C          10.2600    7.5318   10.2362 C.ar    1  UNL1        0.0000
     56 H          11.0658    8.1226    9.8270 H       1  UNL1        0.0000
@<TRIPOS>BOND
     1    48    47    1
     2    37    36    1
     3    39    36    1
     4    21    20    1
     5    47    20   ar
     6    47    55   ar
     7    38    36    1
     8    36    16    1
     9    56    55    1
    10    20    42   ar
    11    55    49   ar
    12    27    26    1
    13    32    30    1
    14    33    30    1
    15    16    30    1
    16    16     5    1
    17    16    43    1
    18    42     6    1
    19    42    34   ar
    20    30    31    1
    21    28    26    1
    22    49    34   ar
    23    49    50    1
    24    26    29    1
    25    26    11    1
    26     5     6    1
    27     5     1    1
    28     6     4    1
    29    45    43    1
    30    44    43    1
    31    34    35    1
    32     1     4    1
    33     1     2    1
    34    43    46    1
    35    15    12    1
    36     4    11    1
    37    19    18    1
    38    11    12    1
    39    11    51    1
    40     3    18    1
    41     3    17    1
    42    12    14    1
    43    12    13    1
    44    18    40    2
    45     2    17    1
    46     2     7    1
    47    52    51    1
    48    17    24    1
    49    51    54    1
    50    51    53    1
    51     9     7    1
    52    40    41    1
    53    40    22    1
    54     7     8    1
    55     7    10    1
    56    24    22    2
    57    24    25    1
    58    22    23    1
