@<TRIPOS>MOLECULE
1,2
 22 22 0 0 0
SMALL
GASTEIGER

@<TRIPOS>ATOM
      1 SI          8.2059    6.1033   17.2539 Si      1  UNL1        0.0000
      2 N           8.9355    3.7238   18.9306 N.pl3   1  UNL1        0.0000
      3 C           9.5245    2.8061   19.6933 C.3     1  UNL1        0.0000
      4 C           8.9533    2.2678   20.8296 C.2     1  UNL1        0.0000
      5 C           7.6952    2.7138   21.2082 C.2     1  UNL1        0.0000
      6 C           7.0648    3.6381   20.4000 C.2     1  UNL1        0.0000
      7 C           7.6979    4.1166   19.2521 C.2     1  UNL1        0.0000
      8 C           6.9823    5.0357   18.3379 C.3     1  UNL1        0.0000
      9 C           7.9567    7.9074   17.8881 C.3     1  UNL1        0.0000
     10 C           7.2954    6.1575   15.5404 C.3     1  UNL1        0.0000
     11 H          10.5055    2.4785   19.3809 H       1  UNL1        0.0000
     12 H           9.4843    1.5277   21.4080 H       1  UNL1        0.0000
     13 H           7.2180    2.3394   22.1021 H       1  UNL1        0.0000
     14 H           6.0751    3.9947   20.6431 H       1  UNL1        0.0000
     15 H           6.2825    5.6481   18.9031 H       1  UNL1        0.0000
     16 H           6.3867    4.4265   17.6562 H       1  UNL1        0.0000
     17 H           6.9151    8.2031   17.8083 H       1  UNL1        0.0000
     18 H           8.2606    8.0189   18.9212 H       1  UNL1        0.0000
     19 H           8.5434    8.5990   17.2972 H       1  UNL1        0.0000
     20 H           7.9165    6.6231   14.7844 H       1  UNL1        0.0000
     21 H           7.0314    5.1686   15.1801 H       1  UNL1        0.0000
     22 H           6.3798    6.7362   15.6160 H       1  UNL1        0.0000
@<TRIPOS>BOND
     1    20    10    1
     2    21    10    1
     3    10    22    1
     4    10     1    1
     5     1     9    1
     6     1     8    1
     7    19     9    1
     8    16     8    1
     9    17     9    1
    10     9    18    1
    11     8    15    1
    12     8     7    1
    13     2     7    1
    14     2     3    1
    15     7     6    2
    16    11     3    1
    17     3     4    1
    18     6    14    1
    19     6     5    1
    20     4     5    2
    21     4    12    1
    22     5    13    1
