@<TRIPOS>MOLECULE
1,2
 22 22 0 0 0
SMALL
GASTEIGER

@<TRIPOS>ATOM
      1 SI         11.2664    5.9998   15.9711 Si      1  UNL1        0.0000
      2 N           9.3859    3.6639   15.8773 N.pl3   1  UNL1        0.0000
      3 C           8.4084    2.7774   16.0493 C.3     1  UNL1        0.0000
      4 C           7.7016    2.1998   15.0131 C.2     1  UNL1        0.0000
      5 C           8.0184    2.5694   13.7139 C.2     1  UNL1        0.0000
      6 C           9.0548    3.4621   13.5287 C.2     1  UNL1        0.0000
      7 C           9.7387    3.9841   14.6275 C.2     1  UNL1        0.0000
      8 C          10.9079    4.8691   14.4204 C.3     1  UNL1        0.0000
      9 C          10.8901    7.7880   15.3549 C.3     1  UNL1        0.0000
     10 C          13.2066    6.0041   16.0344 C.3     1  UNL1        0.0000
     11 H           8.1757    2.5094   17.0698 H       1  UNL1        0.0000
     12 H           6.9172    1.4880   15.2189 H       1  UNL1        0.0000
     13 H           7.4783    2.1617   12.8719 H       1  UNL1        0.0000
     14 H           9.3510    3.7600   12.5341 H       1  UNL1        0.0000
     15 H          10.7770    5.4448   13.5063 H       1  UNL1        0.0000
     16 H          11.7813    4.2332   14.2679 H       1  UNL1        0.0000
     17 H          11.4888    8.0283   14.4816 H       1  UNL1        0.0000
     18 H           9.8471    7.9150   15.0938 H       1  UNL1        0.0000
     19 H          11.1255    8.5097   16.1266 H       1  UNL1        0.0000
     20 H          13.5661    6.4963   16.9303 H       1  UNL1        0.0000
     21 H          13.6234    5.0023   16.0248 H       1  UNL1        0.0000
     22 H          13.6122    6.5381   15.1804 H       1  UNL1        0.0000
@<TRIPOS>BOND
     1    14     6    1
     2    13     5    1
     3    15     8    1
     4     6     5    1
     5     6     7    2
     6     5     4    2
     7    16     8    1
     8     8     7    1
     9     8     1    1
    10    17     9    1
    11     7     2    1
    12     4    12    1
    13     4     3    1
    14    18     9    1
    15    22    10    1
    16     9     1    1
    17     9    19    1
    18     2     3    1
    19     1    10    1
    20    21    10    1
    21    10    20    1
    22     3    11    1
