@<TRIPOS>MOLECULE
1,2
 22 22 0 0 0
SMALL
GASTEIGER

@<TRIPOS>ATOM
      1 SI         10.8476    6.0616   19.2648 Si      1  UNL1        0.0000
      2 N          11.8064    3.6274   17.7934 N.pl3   1  UNL1        0.0000
      3 C          12.1302    2.6995   16.8962 C.3     1  UNL1        0.0000
      4 C          13.3724    2.1006   16.8221 C.2     1  UNL1        0.0000
      5 C          14.3474    2.4936   17.7276 C.2     1  UNL1        0.0000
      6 C          14.0053    3.4286   18.6836 C.2     1  UNL1        0.0000
      7 C          12.7190    3.9692   18.7099 C.2     1  UNL1        0.0000
      8 C          12.3255    4.8994   19.7922 C.3     1  UNL1        0.0000
      9 C          11.6341    7.8194   19.1629 C.3     1  UNL1        0.0000
     10 C           9.8190    6.1833   20.9066 C.3     1  UNL1        0.0000
     11 H          11.3568    2.4147   16.1976 H       1  UNL1        0.0000
     12 H          13.5738    1.3554   16.0683 H       1  UNL1        0.0000
     13 H          15.3411    2.0713   17.6933 H       1  UNL1        0.0000
     14 H          14.7251    3.7456   19.4231 H       1  UNL1        0.0000
     15 H          13.1946    5.4568   20.1358 H       1  UNL1        0.0000
     16 H          11.9828    4.2992   20.6364 H       1  UNL1        0.0000
     17 H          12.3958    7.8780   18.3956 H       1  UNL1        0.0000
     18 H          10.8774    8.5580   18.9309 H       1  UNL1        0.0000
     19 H          12.0871    8.0944   20.1106 H       1  UNL1        0.0000
     20 H           8.8850    6.7074   20.7428 H       1  UNL1        0.0000
     21 H           9.5767    5.2084   21.3168 H       1  UNL1        0.0000
     22 H          10.3748    6.7300   21.6624 H       1  UNL1        0.0000
@<TRIPOS>BOND
     1    12     4    1
     2    11     3    1
     3     4     3    1
     4     4     5    2
     5     3     2    1
     6    13     5    1
     7     5     6    1
     8     2     7    1
     9    17     9    1
    10     6     7    2
    11     6    14    1
    12     7     8    1
    13    18     9    1
    14     9     1    1
    15     9    19    1
    16     1     8    1
    17     1    10    1
    18     8    15    1
    19     8    16    1
    20    20    10    1
    21    10    21    1
    22    10    22    1
