@<TRIPOS>MOLECULE
1,3
 20 20 0 0 0
SMALL
GASTEIGER

@<TRIPOS>ATOM
      1 SI         10.0546    3.0440   15.9903 Si      1  UNL1        0.0000
      2 O          11.3850    3.4413   14.9409 O.3     1  UNL1        0.0000
      3 N           9.8467    3.8015   13.3138 N.pl3   1  UNL1        0.0000
      4 C          10.0537    4.5184   17.2276 C.3     1  UNL1        0.0000
      5 H          11.0323    4.6557   17.6776 H       1  UNL1        0.0000
      6 H           9.3435    4.3370   18.0257 H       1  UNL1        0.0000
      7 H           9.7741    5.4482   16.7441 H       1  UNL1        0.0000
      8 C          10.9161    1.6459   16.9790 C.3     1  UNL1        0.0000
      9 H          11.0962    0.7552   16.3911 H       1  UNL1        0.0000
     10 H          10.3121    1.3735   17.8359 H       1  UNL1        0.0000
     11 H          11.8759    1.9948   17.3470 H       1  UNL1        0.0000
     12 C          11.1173    3.8795   13.7462 C.3     1  UNL1        0.0000
     13 C          12.1288    4.4067   12.9344 C.2     1  UNL1        0.0000
     14 H          13.1341    4.4364   13.3213 H       1  UNL1        0.0000
     15 C          11.8133    4.8755   11.6778 C.2     1  UNL1        0.0000
     16 H          12.5805    5.2848   11.0385 H       1  UNL1        0.0000
     17 C          10.4884    4.8255   11.2551 C.2     1  UNL1        0.0000
     18 H          10.1964    5.2001   10.2877 H       1  UNL1        0.0000
     19 C           9.5501    4.2867   12.1068 C.2     1  UNL1        0.0000
     20 H           8.5046    4.2415   11.8415 H       1  UNL1        0.0000
@<TRIPOS>BOND
     1    18    17    1
     2    16    15    1
     3    17    15    1
     4    17    19    2
     5    15    13    2
     6    20    19    1
     7    19     3    1
     8    13    14    1
     9    13    12    1
    10     3    12    1
    11    12     2    1
    12     2     1    1
    13     1     8    1
    14     1     4    1
    15     9     8    1
    16     7     4    1
    17     8    11    1
    18     8    10    1
    19     4     5    1
    20     4     6    1
