@<TRIPOS>MOLECULE
1,2
 23 22 0 0 0
SMALL
GASTEIGER

@<TRIPOS>ATOM
      1 SI         -0.3925    2.6174    4.5919 Si      1  UNL1        0.0000
      2 N          -0.4609    2.6541    2.8644 N.3     1  UNL1        0.0000
      3 C          -1.2023    4.1504    5.5098 C.3     1  UNL1        0.0000
      4 C          -1.3607    1.1434    5.4510 C.3     1  UNL1        0.0000
      5 C          -1.5708    2.7266    1.9402 C.3     1  UNL1        0.0000
      6 C          -2.4181    3.9908    2.1905 C.3     1  UNL1        0.0000
      7 C          -1.0584    2.7669    0.4858 C.3     1  UNL1        0.0000
      8 C          -2.5003    1.5053    2.0952 C.3     1  UNL1        0.0000
      9 H          -0.9067    4.1896    6.5561 H       1  UNL1        0.0000
     10 H          -0.9018    5.0865    5.0452 H       1  UNL1        0.0000
     11 H          -2.2891    4.1074    5.4907 H       1  UNL1        0.0000
     12 H          -1.1621    0.2001    4.9477 H       1  UNL1        0.0000
     13 H          -2.4367    1.3034    5.4390 H       1  UNL1        0.0000
     14 H          -1.0706    1.0306    6.4934 H       1  UNL1        0.0000
     15 H          -2.8813    3.9340    3.1702 H       1  UNL1        0.0000
     16 H          -1.7908    4.8783    2.1641 H       1  UNL1        0.0000
     17 H          -3.1978    4.0858    1.4372 H       1  UNL1        0.0000
     18 H          -0.4782    3.6720    0.3132 H       1  UNL1        0.0000
     19 H          -1.8991    2.7634   -0.2072 H       1  UNL1        0.0000
     20 H          -0.4385    1.8950    0.2786 H       1  UNL1        0.0000
     21 H          -3.3119    1.5464    1.3712 H       1  UNL1        0.0000
     22 H          -2.9218    1.4909    3.0949 H       1  UNL1        0.0000
     23 H          -1.9444    0.5826    1.9492 H       1  UNL1        0.0000
@<TRIPOS>BOND
     1    19     7    1
     2    20     7    1
     3    18     7    1
     4     7     5    1
     5    21     8    1
     6    17     6    1
     7     5     8    1
     8     5     6    1
     9     5     2    1
    10    23     8    1
    11     8    22    1
    12    16     6    1
    13     6    15    1
    14     2     1    1
    15     1     4    1
    16     1     3    1
    17    12     4    1
    18    10     3    1
    19    13     4    1
    20     4    14    1
    21    11     3    1
    22     3     9    1
