@<TRIPOS>MOLECULE
1,3
 40 42 0 0 0
SMALL
GASTEIGER

@<TRIPOS>ATOM
      1 SI          7.8496   12.9605    6.2112 Si      1  UNL1        0.0000
      2 O           6.2987   12.7945    6.9548 O.3     1  UNL1        0.0000
      3 N           5.4780   14.0666    5.2526 N.pl3   1  UNL1        0.0000
      4 C           5.3359   13.5128    6.4678 C.3     1  UNL1        0.0000
      5 C           4.1617   13.6958    7.2165 C.2     1  UNL1        0.0000
      6 H           4.1001   13.2232    8.1831 H       1  UNL1        0.0000
      7 C           3.1465   14.4745    6.7134 C.2     1  UNL1        0.0000
      8 H           2.2412   14.6304    7.2797 H       1  UNL1        0.0000
      9 C           3.3163   15.0637    5.4632 C.2     1  UNL1        0.0000
     10 H           2.5542   15.6922    5.0326 H       1  UNL1        0.0000
     11 C           4.4878   14.8269    4.7799 C.2     1  UNL1        0.0000
     12 H           4.6626   15.2722    3.8085 H       1  UNL1        0.0000
     13 C           8.6742   11.3306    6.6849 C.ar    1  UNL1        0.0000
     14 C           9.9589   11.0873    6.2114 C.ar    1  UNL1        0.0000
     15 H          10.4357   11.8349    5.5939 H       1  UNL1        0.0000
     16 C          10.6295    9.9208    6.5257 C.ar    1  UNL1        0.0000
     17 H          11.6294    9.7552    6.1480 H       1  UNL1        0.0000
     18 C          10.0334    8.9548    7.3286 C.ar    1  UNL1        0.0000
     19 C           8.7506    9.1931    7.8053 C.ar    1  UNL1        0.0000
     20 H           8.2726    8.4550    8.4354 H       1  UNL1        0.0000
     21 C           8.0840   10.3624    7.4882 C.ar    1  UNL1        0.0000
     22 H           7.0900   10.5361    7.8724 H       1  UNL1        0.0000
     23 C          10.7513    7.6802    7.6560 C.3     1  UNL1        0.0000
     24 H          10.4257    7.2871    8.6165 H       1  UNL1        0.0000
     25 H          11.8271    7.8384    7.6848 H       1  UNL1        0.0000
     26 H          10.5426    6.9267    6.8951 H       1  UNL1        0.0000
     27 C           8.6503   14.2983    7.3176 C.ar    1  UNL1        0.0000
     28 C           9.7390   14.0439    8.1447 C.ar    1  UNL1        0.0000
     29 H          10.1488   13.0449    8.1830 H       1  UNL1        0.0000
     30 C          10.3049   15.0444    8.9123 C.ar    1  UNL1        0.0000
     31 H          11.1532   14.8217    9.5452 H       1  UNL1        0.0000
     32 C           9.7996   16.3383    8.8796 C.ar    1  UNL1        0.0000
     33 C           8.7146   16.6014    8.0531 C.ar    1  UNL1        0.0000
     34 H           8.3099   17.6033    8.0067 H       1  UNL1        0.0000
     35 C           8.1551   15.5994    7.2833 C.ar    1  UNL1        0.0000
     36 H           7.3168   15.8324    6.6334 H       1  UNL1        0.0000
     37 C          10.4050   17.4148    9.7290 C.3     1  UNL1        0.0000
     38 H          10.0742   17.3063   10.7626 H       1  UNL1        0.0000
     39 H          10.1083   18.4002    9.3781 H       1  UNL1        0.0000
     40 H          11.4911   17.3486    9.7182 H       1  UNL1        0.0000
@<TRIPOS>BOND
     1    12    11    1
     2    11     3    1
     3    11     9    2
     4    10     9    1
     5     3     4    1
     6     9     7    1
     7    15    14    1
     8    17    16    1
     9     1    13    1
    10     1     2    1
    11     1    27    1
    12    14    16   ar
    13    14    13   ar
    14     4     2    1
    15     4     5    1
    16    16    18   ar
    17    36    35    1
    18    13    21   ar
    19     7     5    2
    20     7     8    1
    21    26    23    1
    22     5     6    1
    23    35    27   ar
    24    35    33   ar
    25    27    28   ar
    26    18    23    1
    27    18    19   ar
    28    21    19   ar
    29    21    22    1
    30    23    25    1
    31    23    24    1
    32    19    20    1
    33    34    33    1
    34    33    32   ar
    35    28    29    1
    36    28    30   ar
    37    32    30   ar
    38    32    37    1
    39    30    31    1
    40    39    37    1
    41    40    37    1
    42    37    38    1
