@<TRIPOS>MOLECULE
1,3
 40 42 0 0 0
SMALL
GASTEIGER

@<TRIPOS>ATOM
      1 SI          3.8355   12.9827   13.0809 Si      1  UNL1        0.0000
      2 O           5.4035   12.7995   12.3279 O.3     1  UNL1        0.0000
      3 N           6.2476   14.0941   14.0046 N.pl3   1  UNL1        0.0000
      4 C           6.3786   13.5150   12.7985 C.3     1  UNL1        0.0000
      5 C           7.5553   13.6691   12.0470 C.2     1  UNL1        0.0000
      6 H           7.6134   13.1775   11.0898 H       1  UNL1        0.0000
      7 C           8.5789   14.4455   12.5369 C.2     1  UNL1        0.0000
      8 H           9.4862   14.5792   11.9679 H       1  UNL1        0.0000
      9 C           8.4188   15.0628   13.7752 C.2     1  UNL1        0.0000
     10 H           9.1898   15.6909   14.1902 H       1  UNL1        0.0000
     11 C           7.2461   14.8531   14.4652 C.2     1  UNL1        0.0000
     12 H           7.0770   15.3180   15.4295 H       1  UNL1        0.0000
     13 C           3.0159   11.3510   12.5833 C.ar    1  UNL1        0.0000
     14 C           1.7222   11.1035   13.0290 C.ar    1  UNL1        0.0000
     15 H           1.2266   11.8537   13.6281 H       1  UNL1        0.0000
     16 C           1.0673    9.9278   12.7132 C.ar    1  UNL1        0.0000
     17 H           0.0605    9.7600   13.0709 H       1  UNL1        0.0000
     18 C           1.6894    8.9564   11.9385 C.ar    1  UNL1        0.0000
     19 C           2.9805    9.2007   11.4852 C.ar    1  UNL1        0.0000
     20 H           3.4772    8.4578   10.8755 H       1  UNL1        0.0000
     21 C           3.6306   10.3783   11.8026 C.ar    1  UNL1        0.0000
     22 H           4.6311   10.5559   11.4381 H       1  UNL1        0.0000
     23 C           0.9986    7.6678   11.6078 C.3     1  UNL1        0.0000
     24 H           1.1533    7.4051   10.5630 H       1  UNL1        0.0000
     25 H          -0.0695    7.7387   11.7988 H       1  UNL1        0.0000
     26 H           1.4017    6.8585   12.2179 H       1  UNL1        0.0000
     27 C           3.0572   14.3338   11.9663 C.ar    1  UNL1        0.0000
     28 C           2.1014   14.0552   10.9949 C.ar    1  UNL1        0.0000
     29 H           1.7793   13.0340   10.8504 H       1  UNL1        0.0000
     30 C           1.5589   15.0602   10.2169 C.ar    1  UNL1        0.0000
     31 H           0.8164   14.8202    9.4679 H       1  UNL1        0.0000
     32 C           1.9545   16.3821   10.3841 C.ar    1  UNL1        0.0000
     33 C           2.9043   16.6683   11.3560 C.ar    1  UNL1        0.0000
     34 H           3.2206   17.6911   11.5080 H       1  UNL1        0.0000
     35 C           3.4419   15.6613   12.1356 C.ar    1  UNL1        0.0000
     36 H           4.1713   15.9066   12.9008 H       1  UNL1        0.0000
     37 C           1.3524   17.4649    9.5402 C.3     1  UNL1        0.0000
     38 H           1.4160   17.2073    8.4839 H       1  UNL1        0.0000
     39 H           1.8599   18.4127    9.7013 H       1  UNL1        0.0000
     40 H           0.2987   17.5917    9.7882 H       1  UNL1        0.0000
@<TRIPOS>BOND
     1    38    37    1
     2    31    30    1
     3    37    39    1
     4    37    40    1
     5    37    32    1
     6    30    32   ar
     7    30    28   ar
     8    32    33   ar
     9    24    23    1
    10    29    28    1
    11    20    19    1
    12    28    27   ar
    13     6     5    1
    14    33    34    1
    15    33    35   ar
    16    22    21    1
    17    19    21   ar
    18    19    18   ar
    19    23    25    1
    20    23    18    1
    21    23    26    1
    22    21    13   ar
    23    18    16   ar
    24    27    35   ar
    25    27     1    1
    26     8     7    1
    27     5     7    2
    28     5     4    1
    29    35    36    1
    30     2     4    1
    31     2     1    1
    32     7     9    1
    33    13    14   ar
    34    13     1    1
    35    16    14   ar
    36    16    17    1
    37     4     3    1
    38    14    15    1
    39     9    10    1
    40     9    11    2
    41     3    11    1
    42    11    12    1
