@<TRIPOS>MOLECULE
1,2
 41 43 0 0 0
SMALL
GASTEIGER

@<TRIPOS>ATOM
      1 SI          0.0114    7.3058    4.0711 Si      1  UNL1        0.0000
      2 N           0.3933    9.6774    2.5600 N.pl3   1  UNL1        0.0000
      3 N          -1.2663    8.2417    3.2288 N.3     1  UNL1        0.0000
      4 H          -2.1861    7.8744    3.0391 H       1  UNL1        0.0000
      5 C          -0.8700    9.2295    2.4229 C.3     1  UNL1        0.0000
      6 C          -1.7363    9.8013    1.4654 C.2     1  UNL1        0.0000
      7 H          -2.7461    9.4268    1.3925 H       1  UNL1        0.0000
      8 C          -1.2847   10.7999    0.6424 C.2     1  UNL1        0.0000
      9 H          -1.9353   11.2405   -0.0976 H       1  UNL1        0.0000
     10 C           0.0365   11.2284    0.7748 C.2     1  UNL1        0.0000
     11 H           0.4405   11.9988    0.1393 H       1  UNL1        0.0000
     12 C           0.8190   10.6411    1.7421 C.2     1  UNL1        0.0000
     13 H           1.8508   10.9434    1.8712 H       1  UNL1        0.0000
     14 C           0.2457    5.8175    2.8903 C.ar    1  UNL1        0.0000
     15 C           0.8637    6.0274    1.6597 C.ar    1  UNL1        0.0000
     16 H           1.1936    7.0280    1.3985 H       1  UNL1        0.0000
     17 C           1.0734    4.9882    0.7743 C.ar    1  UNL1        0.0000
     18 H           1.5577    5.1786   -0.1738 H       1  UNL1        0.0000
     19 C           0.6769    3.6944    1.0920 C.ar    1  UNL1        0.0000
     20 C           0.0638    3.4761    2.3186 C.ar    1  UNL1        0.0000
     21 H          -0.2473    2.4755    2.5869 H       1  UNL1        0.0000
     22 C          -0.1476    4.5205    3.2003 C.ar    1  UNL1        0.0000
     23 H          -0.6210    4.3257    4.1522 H       1  UNL1        0.0000
     24 C           0.8873    2.5674    0.1264 C.3     1  UNL1        0.0000
     25 H           1.0454    1.6294    0.6539 H       1  UNL1        0.0000
     26 H           1.7441    2.7614   -0.5148 H       1  UNL1        0.0000
     27 H           0.0087    2.4516   -0.5100 H       1  UNL1        0.0000
     28 C          -0.8585    6.5923    5.5930 C.ar    1  UNL1        0.0000
     29 C          -2.1832    6.8317    5.9364 C.ar    1  UNL1        0.0000
     30 H          -2.7922    7.4595    5.3018 H       1  UNL1        0.0000
     31 C          -2.7403    6.2897    7.0814 C.ar    1  UNL1        0.0000
     32 H          -3.7744    6.4947    7.3244 H       1  UNL1        0.0000
     33 C          -1.9866    5.4860    7.9254 C.ar    1  UNL1        0.0000
     34 C          -0.6596    5.2395    7.5881 C.ar    1  UNL1        0.0000
     35 H          -0.0558    4.6155    8.2327 H       1  UNL1        0.0000
     36 C          -0.1100    5.7853    6.4448 C.ar    1  UNL1        0.0000
     37 H           0.9226    5.5867    6.1969 H       1  UNL1        0.0000
     38 C          -2.5834    4.8812    9.1600 C.3     1  UNL1        0.0000
     39 H          -2.8023    3.8263    8.9913 H       1  UNL1        0.0000
     40 H          -3.5100    5.3818    9.4312 H       1  UNL1        0.0000
     41 H          -1.8889    4.9467    9.9957 H       1  UNL1        0.0000
@<TRIPOS>BOND
     1    26    24    1
     2    27    24    1
     3    18    17    1
     4     9     8    1
     5    24    25    1
     6    24    19    1
     7    11    10    1
     8     8    10    1
     9     8     6    2
    10    17    19   ar
    11    17    15   ar
    12    10    12    2
    13    19    20   ar
    14     7     6    1
    15    16    15    1
    16     6     5    1
    17    15    14   ar
    18    12    13    1
    19    12     2    1
    20    20    21    1
    21    20    22   ar
    22     5     2    1
    23     5     3    1
    24    14    22   ar
    25    14     1    1
    26     4     3    1
    27    22    23    1
    28     3     1    1
    29     1    28    1
    30    30    29    1
    31    28    29   ar
    32    28    36   ar
    33    29    31   ar
    34    37    36    1
    35    36    34   ar
    36    31    32    1
    37    31    33   ar
    38    34    33   ar
    39    34    35    1
    40    33    38    1
    41    39    38    1
    42    38    40    1
    43    38    41    1
