@<TRIPOS>MOLECULE
1,4
 25 26 0 0 0
SMALL
GASTEIGER

@<TRIPOS>ATOM
      1 SI          0.9133   -4.1044  -11.7434 Si      1  UNL1        0.0000
      2 C           0.1002   -3.8202  -13.4759 C.3     1  UNL1        0.0000
      3 C           0.7939   -6.0281  -11.4967 C.3     1  UNL1        0.0000
      4 N           2.8586   -2.2855  -10.2721 N.pl3   1  UNL1        0.0000
      5 C           3.5213   -1.4259   -9.5346 C.2     1  UNL1        0.0000
      6 C           4.8772   -1.1244   -9.7068 C.2     1  UNL1        0.0000
      7 C           5.5700   -1.7598  -10.7014 C.2     1  UNL1        0.0000
      8 C           4.8942   -2.6866  -11.5198 C.2     1  UNL1        0.0000
      9 C           5.5435   -3.3803  -12.5593 C.3     1  UNL1        0.0000
     10 C           4.8479   -4.2722  -13.3270 C.2     1  UNL1        0.0000
     11 C           3.4852   -4.4921  -13.0866 C.2     1  UNL1        0.0000
     12 C           2.8028   -3.8419  -12.0889 C.2     1  UNL1        0.0000
     13 C           3.5109   -2.9257  -11.2799 C.2     1  UNL1        0.0000
     14 H           0.2785   -2.8123  -13.8317 H       1  UNL1        0.0000
     15 H          -0.9719   -3.9615  -13.4139 H       1  UNL1        0.0000
     16 H           0.4845   -4.5121  -14.2188 H       1  UNL1        0.0000
     17 H           1.5042   -6.3830  -10.7561 H       1  UNL1        0.0000
     18 H           0.9857   -6.5655  -12.4202 H       1  UNL1        0.0000
     19 H          -0.1977   -6.3033  -11.1541 H       1  UNL1        0.0000
     20 H           2.9720   -0.9270   -8.7481 H       1  UNL1        0.0000
     21 H           5.3497   -0.4041   -9.0565 H       1  UNL1        0.0000
     22 H           6.6199   -1.5659  -10.8711 H       1  UNL1        0.0000
     23 H           6.5936   -3.1907  -12.7326 H       1  UNL1        0.0000
     24 H           5.3450   -4.8070  -14.1240 H       1  UNL1        0.0000
     25 H           2.9546   -5.1961  -13.7096 H       1  UNL1        0.0000
@<TRIPOS>BOND
     1    16     2    1
     2    24    10    1
     3    14     2    1
     4    25    11    1
     5     2    15    1
     6     2     1    1
     7    10    11    2
     8    10     9    1
     9    11    12    1
    10    23     9    1
    11     9     8    1
    12    18     3    1
    13    12     1    1
    14    12    13    2
    15     1     3    1
    16     8    13    1
    17     8     7    2
    18     3    19    1
    19     3    17    1
    20    13     4    1
    21    22     7    1
    22     7     6    1
    23     4     5    1
    24     6     5    2
    25     6    21    1
    26     5    20    1
