@<TRIPOS>MOLECULE
1,4
 25 26 0 0 0
SMALL
GASTEIGER

@<TRIPOS>ATOM
      1 SI         -1.5254   -3.3345   -9.3020 Si      1  UNL1        0.0000
      2 C          -2.8478   -4.0243  -10.5342 C.3     1  UNL1        0.0000
      3 C          -2.5615   -2.1885   -8.1233 C.3     1  UNL1        0.0000
      4 N           1.2004   -4.4571   -8.5429 N.pl3   1  UNL1        0.0000
      5 C           2.4540   -4.7935   -8.3505 C.2     1  UNL1        0.0000
      6 C           2.8652   -5.8855   -7.5777 C.2     1  UNL1        0.0000
      7 C           1.9108   -6.6599   -6.9760 C.2     1  UNL1        0.0000
      8 C           0.5522   -6.3327   -7.1564 C.2     1  UNL1        0.0000
      9 C          -0.4826   -7.0813   -6.5631 C.2     1  UNL1        0.0000
     10 C          -1.7871   -6.7256   -6.7632 C.2     1  UNL1        0.0000
     11 C          -2.0976   -5.6183   -7.5636 C.2     1  UNL1        0.0000
     12 C          -1.1294   -4.8559   -8.1678 C.2     1  UNL1        0.0000
     13 C           0.2236   -5.2073   -7.9650 C.3     1  UNL1        0.0000
     14 H          -2.4520   -4.8519  -11.1110 H       1  UNL1        0.0000
     15 H          -3.1472   -3.2522  -11.2322 H       1  UNL1        0.0000
     16 H          -3.7384   -4.3689  -10.0184 H       1  UNL1        0.0000
     17 H          -3.5164   -2.6357   -7.8650 H       1  UNL1        0.0000
     18 H          -2.7609   -1.2368   -8.6035 H       1  UNL1        0.0000
     19 H          -2.0342   -1.9822   -7.1969 H       1  UNL1        0.0000
     20 H           3.2070   -4.1790   -8.8246 H       1  UNL1        0.0000
     21 H           3.9184   -6.0959   -7.4701 H       1  UNL1        0.0000
     22 H           2.1768   -7.5129   -6.3674 H       1  UNL1        0.0000
     23 H          -0.2213   -7.9349   -5.9533 H       1  UNL1        0.0000
     24 H          -2.5828   -7.2981   -6.3079 H       1  UNL1        0.0000
     25 H          -3.1349   -5.3584   -7.7110 H       1  UNL1        0.0000
@<TRIPOS>BOND
     1    15     2    1
     2    14     2    1
     3     2    16    1
     4     2     1    1
     5     1    12    1
     6     1     3    1
     7    20     5    1
     8    18     3    1
     9     4     5    1
    10     4    13    1
    11     5     6    2
    12    12    13    1
    13    12    11    2
    14     3    17    1
    15     3    19    1
    16    13     8    1
    17    25    11    1
    18     6    21    1
    19     6     7    1
    20    11    10    1
    21     8     7    2
    22     8     9    1
    23     7    22    1
    24    10     9    2
    25    10    24    1
    26     9    23    1
