@<TRIPOS>MOLECULE
1,4
 25 26 0 0 0
SMALL
GASTEIGER

@<TRIPOS>ATOM
      1 SI          0.1124   -0.7224  -11.0295 Si      1  UNL1        0.0000
      2 C          -1.5696   -0.3816  -11.9226 C.3     1  UNL1        0.0000
      3 C           1.4268    0.0704  -12.2209 C.3     1  UNL1        0.0000
      4 N           0.6821   -1.2916   -8.0957 N.pl3   1  UNL1        0.0000
      5 C           0.9454   -1.7432   -6.8922 C.2     1  UNL1        0.0000
      6 C           0.9339   -0.9534   -5.7367 C.2     1  UNL1        0.0000
      7 C           0.6326    0.3764   -5.8535 C.2     1  UNL1        0.0000
      8 C           0.3449    0.9021   -7.1288 C.2     1  UNL1        0.0000
      9 C           0.0330    2.2613   -7.3250 C.2     1  UNL1        0.0000
     10 C          -0.2355    2.7283   -8.5813 C.2     1  UNL1        0.0000
     11 C          -0.2058    1.8544   -9.6761 C.2     1  UNL1        0.0000
     12 C           0.0890    0.5206   -9.5416 C.2     1  UNL1        0.0000
     13 C           0.3742    0.0246   -8.2501 C.3     1  UNL1        0.0000
     14 H          -1.6835   -1.0445  -12.7714 H       1  UNL1        0.0000
     15 H          -1.6327    0.6387  -12.2875 H       1  UNL1        0.0000
     16 H          -2.4076   -0.5530  -11.2572 H       1  UNL1        0.0000
     17 H           1.6085   -0.5815  -13.0683 H       1  UNL1        0.0000
     18 H           2.3781    0.2293  -11.7223 H       1  UNL1        0.0000
     19 H           1.0937    1.0292  -12.6060 H       1  UNL1        0.0000
     20 H           1.1847   -2.7940   -6.8027 H       1  UNL1        0.0000
     21 H           1.1610   -1.4025   -4.7819 H       1  UNL1        0.0000
     22 H           0.6116    1.0285   -4.9916 H       1  UNL1        0.0000
     23 H           0.0113    2.9177   -6.4663 H       1  UNL1        0.0000
     24 H          -0.4739    3.7714   -8.7342 H       1  UNL1        0.0000
     25 H          -0.4249    2.2447  -10.6584 H       1  UNL1        0.0000
@<TRIPOS>BOND
     1    17     3    1
     2    14     2    1
     3    19     3    1
     4    15     2    1
     5     3    18    1
     6     3     1    1
     7     2    16    1
     8     2     1    1
     9     1    12    1
    10    25    11    1
    11    11    12    2
    12    11    10    1
    13    12    13    1
    14    24    10    1
    15    10     9    2
    16    13     4    1
    17    13     8    1
    18     4     5    1
    19     9     8    1
    20     9    23    1
    21     8     7    2
    22     5    20    1
    23     5     6    2
    24     7     6    1
    25     7    22    1
    26     6    21    1
