@<TRIPOS>MOLECULE
1,4
 25 26 0 0 0
SMALL
GASTEIGER

@<TRIPOS>ATOM
      1 SI         -1.5581   -3.3497   -9.3477 Si      1  UNL1        0.0000
      2 C          -2.8423   -4.0766  -10.5957 C.3     1  UNL1        0.0000
      3 C          -2.6164   -2.1510   -8.2422 C.3     1  UNL1        0.0000
      4 N           1.1378   -4.5244   -8.5488 N.pl3   1  UNL1        0.0000
      5 C           2.3813   -4.9004   -8.3679 C.2     1  UNL1        0.0000
      6 C           2.7600   -5.9915   -7.5738 C.2     1  UNL1        0.0000
      7 C           1.7859   -6.7151   -6.9426 C.2     1  UNL1        0.0000
      8 C           0.4379   -6.3459   -7.1173 C.2     1  UNL1        0.0000
      9 C          -0.6182   -7.0420   -6.4972 C.2     1  UNL1        0.0000
     10 C          -1.9106   -6.6457   -6.6984 C.2     1  UNL1        0.0000
     11 C          -2.1900   -5.5521   -7.5299 C.2     1  UNL1        0.0000
     12 C          -1.2005   -4.8407   -8.1591 C.2     1  UNL1        0.0000
     13 C           0.1418   -5.2291   -7.9507 C.3     1  UNL1        0.0000
     14 H          -3.7475   -4.3974  -10.0897 H       1  UNL1        0.0000
     15 H          -2.4353   -4.9280  -11.1285 H       1  UNL1        0.0000
     16 H          -3.1192   -3.3290  -11.3289 H       1  UNL1        0.0000
     17 H          -3.6016   -2.5629   -8.0466 H       1  UNL1        0.0000
     18 H          -2.7496   -1.1971   -8.7409 H       1  UNL1        0.0000
     19 H          -2.1429   -1.9563   -7.2847 H       1  UNL1        0.0000
     20 H           3.1491   -4.3233   -8.8682 H       1  UNL1        0.0000
     21 H           3.8053   -6.2405   -7.4732 H       1  UNL1        0.0000
     22 H           2.0284   -7.5621   -6.3158 H       1  UNL1        0.0000
     23 H          -0.3832   -7.8879   -5.8665 H       1  UNL1        0.0000
     24 H          -2.7225   -7.1771   -6.2221 H       1  UNL1        0.0000
     25 H          -3.2194   -5.2637   -7.6798 H       1  UNL1        0.0000
@<TRIPOS>BOND
     1    16     2    1
     2    15     2    1
     3     2    14    1
     4     2     1    1
     5     1     3    1
     6     1    12    1
     7    20     5    1
     8    18     3    1
     9     4     5    1
    10     4    13    1
    11     5     6    2
    12     3    17    1
    13     3    19    1
    14    12    13    1
    15    12    11    2
    16    13     8    1
    17    25    11    1
    18     6    21    1
    19     6     7    1
    20    11    10    1
    21     8     7    2
    22     8     9    1
    23     7    22    1
    24    10     9    2
    25    10    24    1
    26     9    23    1
