@<TRIPOS>MOLECULE
1,4
 25 26 0 0 0
SMALL
GASTEIGER

@<TRIPOS>ATOM
      1 SI          0.0840   -0.8241  -11.0525 Si      1  UNL1        0.0000
      2 C          -1.5972   -0.5054  -11.9507 C.3     1  UNL1        0.0000
      3 C           1.4030   -0.0739  -12.2680 C.3     1  UNL1        0.0000
      4 N           0.5995   -1.3335   -8.0919 N.pl3   1  UNL1        0.0000
      5 C           0.8156   -1.7678   -6.8733 C.2     1  UNL1        0.0000
      6 C           0.7765   -0.9522   -5.7342 C.2     1  UNL1        0.0000
      7 C           0.4998    0.3785   -5.8876 C.2     1  UNL1        0.0000
      8 C           0.2586    0.8823   -7.1807 C.2     1  UNL1        0.0000
      9 C          -0.0293    2.2412   -7.4153 C.2     1  UNL1        0.0000
     10 C          -0.2574    2.6827   -8.6884 C.2     1  UNL1        0.0000
     11 C          -0.2140    1.7834   -9.7631 C.2     1  UNL1        0.0000
     12 C           0.0597    0.4506   -9.5907 C.2     1  UNL1        0.0000
     13 C           0.3091   -0.0198   -8.2821 C.3     1  UNL1        0.0000
     14 H          -1.6591    0.5111  -12.3268 H       1  UNL1        0.0000
     15 H          -2.4366   -0.6694  -11.2852 H       1  UNL1        0.0000
     16 H          -1.7075   -1.1777  -12.7927 H       1  UNL1        0.0000
     17 H           1.6278   -0.7783  -13.0616 H       1  UNL1        0.0000
     18 H           2.3356    0.1592  -11.7631 H       1  UNL1        0.0000
     19 H           1.0393    0.8392  -12.7288 H       1  UNL1        0.0000
     20 H           1.0373   -2.8213   -6.7562 H       1  UNL1        0.0000
     21 H           0.9641   -1.3834   -4.7627 H       1  UNL1        0.0000
     22 H           0.4617    1.0487   -5.0400 H       1  UNL1        0.0000
     23 H          -0.0658    2.9174   -6.5726 H       1  UNL1        0.0000
     24 H          -0.4770    3.7251   -8.8712 H       1  UNL1        0.0000
     25 H          -0.4051    2.1550  -10.7585 H       1  UNL1        0.0000
@<TRIPOS>BOND
     1    17     3    1
     2    16     2    1
     3    19     3    1
     4    14     2    1
     5     3    18    1
     6     3     1    1
     7     2    15    1
     8     2     1    1
     9     1    12    1
    10    25    11    1
    11    11    12    2
    12    11    10    1
    13    12    13    1
    14    24    10    1
    15    10     9    2
    16    13     4    1
    17    13     8    1
    18     4     5    1
    19     9     8    1
    20     9    23    1
    21     8     7    2
    22     5    20    1
    23     5     6    2
    24     7     6    1
    25     7    22    1
    26     6    21    1
