@<TRIPOS>MOLECULE
1,4
 25 26 0 0 0
SMALL
GASTEIGER

@<TRIPOS>ATOM
      1 SI          0.8405   -4.1279  -11.7306 Si      1  UNL1        0.0000
      2 C          -0.0602   -3.8683  -13.4206 C.3     1  UNL1        0.0000
      3 C           0.7874   -6.0541  -11.4703 C.3     1  UNL1        0.0000
      4 N           2.8196   -2.3198  -10.2814 N.pl3   1  UNL1        0.0000
      5 C           3.4956   -1.4754   -9.5396 C.2     1  UNL1        0.0000
      6 C           4.8301   -1.1200   -9.7784 C.2     1  UNL1        0.0000
      7 C           5.4792   -1.6804  -10.8440 C.2     1  UNL1        0.0000
      8 C           4.7863   -2.5915  -11.6649 C.2     1  UNL1        0.0000
      9 C           5.3909   -3.2106  -12.7765 C.3     1  UNL1        0.0000
     10 C           4.6772   -4.0884  -13.5431 C.2     1  UNL1        0.0000
     11 C           3.3398   -4.3699  -13.2301 C.2     1  UNL1        0.0000
     12 C           2.7021   -3.7934  -12.1615 C.2     1  UNL1        0.0000
     13 C           3.4287   -2.8903  -11.3536 C.2     1  UNL1        0.0000
     14 H           0.1139   -2.8720  -13.8099 H       1  UNL1        0.0000
     15 H          -1.1292   -3.9945  -13.3011 H       1  UNL1        0.0000
     16 H           0.2774   -4.5840  -14.1636 H       1  UNL1        0.0000
     17 H          -0.1741   -6.3538  -11.0677 H       1  UNL1        0.0000
     18 H           1.5523   -6.3924  -10.7780 H       1  UNL1        0.0000
     19 H           0.9331   -6.5815  -12.4079 H       1  UNL1        0.0000
     20 H           2.9789   -1.0361   -8.6953 H       1  UNL1        0.0000
     21 H           5.3198   -0.4155   -9.1235 H       1  UNL1        0.0000
     22 H           6.5089   -1.4389  -11.0685 H       1  UNL1        0.0000
     23 H           6.4209   -2.9757  -13.0053 H       1  UNL1        0.0000
     24 H           5.1391   -4.5657  -14.3958 H       1  UNL1        0.0000
     25 H           2.7955   -5.0621  -13.8546 H       1  UNL1        0.0000
@<TRIPOS>BOND
     1    24    10    1
     2    16     2    1
     3    25    11    1
     4    14     2    1
     5    10    11    2
     6    10     9    1
     7     2    15    1
     8     2     1    1
     9    11    12    1
    10    23     9    1
    11     9     8    1
    12    19     3    1
    13    12     1    1
    14    12    13    2
    15     1     3    1
    16     8    13    1
    17     8     7    2
    18     3    17    1
    19     3    18    1
    20    13     4    1
    21    22     7    1
    22     7     6    1
    23     4     5    1
    24     6     5    2
    25     6    21    1
    26     5    20    1
