@<TRIPOS>MOLECULE
1,3
 23 24 0 0 0
SMALL
GASTEIGER

@<TRIPOS>ATOM
      1 SI         -2.4582    7.7896    6.2039 Si      1  UNL1        0.0000
      2 N          -3.3473    8.0925    4.6547 N.pl3   1  UNL1        0.0000
      3 N          -1.7350    6.8348    3.4407 N.pl3   1  UNL1        0.0000
      4 C          -4.4366    8.8443    4.3179 C.2     1  UNL1        0.0000
      5 H          -5.0065    9.3269    5.0873 H       1  UNL1        0.0000
      6 C          -4.6345    8.8547    2.9693 C.2     1  UNL1        0.0000
      7 H          -5.4127    9.3594    2.4318 H       1  UNL1        0.0000
      8 C          -3.5933    8.0695    2.4055 C.2     1  UNL1        0.0000
      9 C          -2.8188    7.6132    3.5124 C.3     1  UNL1        0.0000
     10 C          -1.3602    6.5315    2.1955 C.2     1  UNL1        0.0000
     11 H          -0.4579    5.9514    2.0685 H       1  UNL1        0.0000
     12 C          -2.0438    6.9279    1.0495 C.2     1  UNL1        0.0000
     13 H          -1.6560    6.6187    0.0912 H       1  UNL1        0.0000
     14 C          -3.1888    7.6980    1.1303 C.2     1  UNL1        0.0000
     15 H          -3.7312    8.0050    0.2488 H       1  UNL1        0.0000
     16 C          -2.0243    9.5978    6.7227 C.3     1  UNL1        0.0000
     17 H          -1.3495   10.0656    6.0138 H       1  UNL1        0.0000
     18 H          -1.5384    9.6063    7.6913 H       1  UNL1        0.0000
     19 H          -2.9162   10.2133    6.7934 H       1  UNL1        0.0000
     20 C          -3.9264    7.3088    7.3731 C.3     1  UNL1        0.0000
     21 H          -4.7198    8.0503    7.3465 H       1  UNL1        0.0000
     22 H          -3.5748    7.2433    8.3971 H       1  UNL1        0.0000
     23 H          -4.3632    6.3476    7.1168 H       1  UNL1        0.0000
@<TRIPOS>BOND
     1    13    12    1
     2    15    14    1
     3    12    14    1
     4    12    10    2
     5    14     8    2
     6    11    10    1
     7    10     3    1
     8     8     6    1
     9     8     9    1
    10     7     6    1
    11     6     4    2
    12     3     9    1
    13     9     2    1
    14     4     2    1
    15     4     5    1
    16     2     1    1
    17    17    16    1
    18     1    16    1
    19     1    20    1
    20    16    19    1
    21    16    18    1
    22    23    20    1
    23    21    20    1
    24    20    22    1
