@<TRIPOS>MOLECULE
1,3
 23 24 0 0 0
SMALL
GASTEIGER

@<TRIPOS>ATOM
      1 SI          0.9893    7.5735    5.0011 Si      1  UNL1        0.0000
      2 N           1.9274    6.3923    3.9397 N.pl3   1  UNL1        0.0000
      3 N           0.1414    4.8210    4.0133 N.pl3   1  UNL1        0.0000
      4 C           3.1347    6.4339    3.3062 C.2     1  UNL1        0.0000
      5 H           3.7771    7.2810    3.4455 H       1  UNL1        0.0000
      6 C           3.3445    5.3183    2.5480 C.2     1  UNL1        0.0000
      7 H           4.2049    5.0930    1.9495 H       1  UNL1        0.0000
      8 C           2.1893    4.5082    2.7035 C.2     1  UNL1        0.0000
      9 C           1.3401    5.2336    3.5946 C.3     1  UNL1        0.0000
     10 C          -0.2693    3.6544    3.5221 C.2     1  UNL1        0.0000
     11 H          -1.2442    3.3019    3.8318 H       1  UNL1        0.0000
     12 C           0.4799    2.8768    2.6436 C.2     1  UNL1        0.0000
     13 H           0.0648    1.9419    2.3003 H       1  UNL1        0.0000
     14 C           1.7331    3.2877    2.2237 C.2     1  UNL1        0.0000
     15 H           2.3262    2.6863    1.5510 H       1  UNL1        0.0000
     16 C           2.3941    8.0504    6.2448 C.3     1  UNL1        0.0000
     17 H           2.7365    7.1903    6.8110 H       1  UNL1        0.0000
     18 H           2.0275    8.7834    6.9538 H       1  UNL1        0.0000
     19 H           3.2513    8.4840    5.7389 H       1  UNL1        0.0000
     20 C           0.9650    9.1032    3.7967 C.3     1  UNL1        0.0000
     21 H           1.9478    9.2983    3.3761 H       1  UNL1        0.0000
     22 H           0.6551    9.9941    4.3324 H       1  UNL1        0.0000
     23 H           0.2737    8.9632    2.9694 H       1  UNL1        0.0000
@<TRIPOS>BOND
     1    15    14    1
     2     7     6    1
     3    14    12    1
     4    14     8    2
     5    13    12    1
     6     6     8    1
     7     6     4    2
     8    12    10    2
     9     8     9    1
    10    23    20    1
    11     4     5    1
    12     4     2    1
    13    21    20    1
    14    10    11    1
    15    10     3    1
    16     9     2    1
    17     9     3    1
    18    20    22    1
    19    20     1    1
    20     2     1    1
    21     1    16    1
    22    19    16    1
    23    16    17    1
    24    16    18    1
