@<TRIPOS>MOLECULE
1,3
 23 24 0 0 0
SMALL
GASTEIGER

@<TRIPOS>ATOM
      1 SI          0.3071    4.5976    6.8520 Si      1  UNL1        0.0000
      2 N          -0.9788    3.3166    6.8137 N.pl3   1  UNL1        0.0000
      3 N          -2.4637    4.6604    5.5211 N.pl3   1  UNL1        0.0000
      4 C          -1.0400    2.0545    7.3329 C.2     1  UNL1        0.0000
      5 H          -0.2062    1.6701    7.8868 H       1  UNL1        0.0000
      6 C          -2.2252    1.4494    7.0369 C.2     1  UNL1        0.0000
      7 H          -2.5360    0.4624    7.3172 H       1  UNL1        0.0000
      8 C          -2.9758    2.3868    6.2772 C.2     1  UNL1        0.0000
      9 C          -2.1466    3.5397    6.1723 C.3     1  UNL1        0.0000
     10 C          -3.6593    4.6595    4.9358 C.2     1  UNL1        0.0000
     11 H          -3.9436    5.5571    4.4042 H       1  UNL1        0.0000
     12 C          -4.5439    3.5842    4.9772 C.2     1  UNL1        0.0000
     13 H          -5.4919    3.6763    4.4699 H       1  UNL1        0.0000
     14 C          -4.2184    2.4226    5.6536 C.2     1  UNL1        0.0000
     15 H          -4.8953    1.5824    5.6927 H       1  UNL1        0.0000
     16 C           0.5977    4.7852    8.7540 C.3     1  UNL1        0.0000
     17 H          -0.2836    5.1620    9.2628 H       1  UNL1        0.0000
     18 H           1.4074    5.4799    8.9446 H       1  UNL1        0.0000
     19 H           0.8636    3.8355    9.2081 H       1  UNL1        0.0000
     20 C           1.8762    3.5981    6.3078 C.3     1  UNL1        0.0000
     21 H           2.2552    2.9915    7.1255 H       1  UNL1        0.0000
     22 H           2.6711    4.2759    6.0132 H       1  UNL1        0.0000
     23 H           1.6819    2.9371    5.4674 H       1  UNL1        0.0000
@<TRIPOS>BOND
     1    11    10    1
     2    13    12    1
     3    10    12    2
     4    10     3    1
     5    12    14    1
     6    23    20    1
     7     3     9    1
     8    14    15    1
     9    14     8    2
    10    22    20    1
    11     9     8    1
    12     9     2    1
    13     8     6    1
    14    20     1    1
    15    20    21    1
    16     2     1    1
    17     2     4    1
    18     1    16    1
    19     6     7    1
    20     6     4    2
    21     4     5    1
    22    16    18    1
    23    16    19    1
    24    16    17    1
