@<TRIPOS>MOLECULE
1,2
 45 47 0 0 0
SMALL
GASTEIGER

@<TRIPOS>ATOM
      1 SI          1.9498    3.3689    2.0503 Si      1  UNL1        0.0000
      2 N           1.4700    0.4481    3.3999 N.3     1  UNL1        0.0000
      3 N           1.9204    3.5535   -0.2384 N.4     1  UNL1        0.0000
      4 C           3.6498    2.4045    2.0898 C.ar    1  UNL1        0.0000
      5 C           4.8753    3.0710    2.0952 C.ar    1  UNL1        0.0000
      6 C           6.0768    2.3988    2.2270 C.ar    1  UNL1        0.0000
      7 C           6.0764    1.0231    2.3689 C.ar    1  UNL1        0.0000
      8 C           4.8719    0.3432    2.3889 C.ar    1  UNL1        0.0000
      9 C           3.6602    1.0133    2.2577 C.ar    1  UNL1        0.0000
     10 C           2.3997    0.1819    2.2791 C.3     1  UNL1        0.0000
     11 C           2.2205    0.5064    4.6543 C.3     1  UNL1        0.0000
     12 C           0.5510   -0.6901    3.4750 C.3     1  UNL1        0.0000
     13 C           2.6217    5.1610    1.8220 C.ar    1  UNL1        0.0000
     14 C           2.6231    6.1161    2.8297 C.ar    1  UNL1        0.0000
     15 C           3.0461    7.4110    2.5811 C.ar    1  UNL1        0.0000
     16 C           3.4623    7.7717    1.3108 C.ar    1  UNL1        0.0000
     17 C           3.4525    6.8364    0.2883 C.ar    1  UNL1        0.0000
     18 C           3.0350    5.5425    0.5446 C.ar    1  UNL1        0.0000
     19 C           3.0176    4.4733   -0.5123 C.3     1  UNL1        0.0000
     20 C           0.6465    4.1642   -0.5826 C.3     1  UNL1        0.0000
     21 C           2.0817    2.2801   -0.9112 C.3     1  UNL1        0.0000
     22 H           4.8853    4.1465    1.9973 H       1  UNL1        0.0000
     23 H           7.0083    2.9458    2.2218 H       1  UNL1        0.0000
     24 H           7.0050    0.4818    2.4727 H       1  UNL1        0.0000
     25 H           4.8787   -0.7320    2.5094 H       1  UNL1        0.0000
     26 H           1.8388    0.3259    1.3504 H       1  UNL1        0.0000
     27 H           2.7090   -0.8757    2.3214 H       1  UNL1        0.0000
     28 H           1.5292    0.6437    5.4847 H       1  UNL1        0.0000
     29 H           2.7910   -0.4185    4.8226 H       1  UNL1        0.0000
     30 H           2.9163    1.3444    4.6372 H       1  UNL1        0.0000
     31 H          -0.1508   -0.5452    4.2940 H       1  UNL1        0.0000
     32 H          -0.0126   -0.7771    2.5469 H       1  UNL1        0.0000
     33 H           1.0947   -1.6320    3.6448 H       1  UNL1        0.0000
     34 H           2.2883    5.8385    3.8188 H       1  UNL1        0.0000
     35 H           3.0469    8.1420    3.3760 H       1  UNL1        0.0000
     36 H           3.7883    8.7819    1.1121 H       1  UNL1        0.0000
     37 H           3.7711    7.1172   -0.7062 H       1  UNL1        0.0000
     38 H           2.9340    4.9089   -1.5173 H       1  UNL1        0.0000
     39 H           3.9552    3.9101   -0.4622 H       1  UNL1        0.0000
     40 H           0.5660    4.3329   -1.6620 H       1  UNL1        0.0000
     41 H          -0.1695    3.5210   -0.2602 H       1  UNL1        0.0000
     42 H           0.5532    5.1177   -0.0680 H       1  UNL1        0.0000
     43 H           2.9933    1.7965   -0.5629 H       1  UNL1        0.0000
     44 H           2.1370    2.3994   -1.9994 H       1  UNL1        0.0000
     45 H           1.2302    1.6430   -0.6780 H       1  UNL1        0.0000
@<TRIPOS>BOND
     1    44    21    1
     2    40    20    1
     3    38    19    1
     4    21    45    1
     5    21    43    1
     6    21     3    1
     7    37    17    1
     8    20    41    1
     9    20     3    1
    10    20    42    1
    11    19    39    1
    12    19     3    1
    13    19    18    1
    14    17    18   ar
    15    17    16   ar
    16    18    13   ar
    17    36    16    1
    18    16    15   ar
    19    26    10    1
    20    13     1    1
    21    13    14   ar
    22    22     5    1
    23     1     4    1
    24     4     5   ar
    25     4     9   ar
    26     5     6   ar
    27    23     6    1
    28     6     7   ar
    29     9    10    1
    30     9     8   ar
    31    10    27    1
    32    10     2    1
    33     7     8   ar
    34     7    24    1
    35     8    25    1
    36    32    12    1
    37    15    14   ar
    38    15    35    1
    39    14    34    1
    40     2    12    1
    41     2    11    1
    42    12    33    1
    43    12    31    1
    44    30    11    1
    45    11    29    1
    46    11    28    1
    47     1     3    0
