@<TRIPOS>MOLECULE
1,3
 34 36 0 0 0
SMALL
GASTEIGER

@<TRIPOS>ATOM
      1 SI         -0.1487    2.8783    5.9445 Si      1  UNL1        0.0000
      2 O          -1.3378    2.3357    7.0706 O.3     1  UNL1        0.0000
      3 N          -2.5942    1.4210    5.3820 N.pl3   1  UNL1        0.0000
      4 C          -2.3455    1.6013    6.6900 C.3     1  UNL1        0.0000
      5 C          -3.1669    1.0308    7.6741 C.2     1  UNL1        0.0000
      6 H          -2.9121    1.2068    8.7065 H       1  UNL1        0.0000
      7 C          -4.2545    0.2777    7.3029 C.2     1  UNL1        0.0000
      8 H          -4.8958   -0.1677    8.0485 H       1  UNL1        0.0000
      9 C          -4.5093    0.1038    5.9475 C.2     1  UNL1        0.0000
     10 H          -5.3514   -0.4731    5.6021 H       1  UNL1        0.0000
     11 C          -3.6582    0.6906    5.0386 C.2     1  UNL1        0.0000
     12 H          -3.8382    0.5758    3.9756 H       1  UNL1        0.0000
     13 C           0.2576    4.5838    6.6912 C.ar    1  UNL1        0.0000
     14 C          -0.6329    5.2941    7.4849 C.ar    1  UNL1        0.0000
     15 H          -1.5875    4.8520    7.7309 H       1  UNL1        0.0000
     16 C          -0.3108    6.5433    7.9823 C.ar    1  UNL1        0.0000
     17 H          -1.0192    7.0805    8.5978 H       1  UNL1        0.0000
     18 C           0.9206    7.1049    7.6939 C.ar    1  UNL1        0.0000
     19 H           1.1766    8.0808    8.0814 H       1  UNL1        0.0000
     20 C           1.8254    6.4057    6.9125 C.ar    1  UNL1        0.0000
     21 H           2.7928    6.8351    6.6926 H       1  UNL1        0.0000
     22 C           1.4909    5.1605    6.4151 C.ar    1  UNL1        0.0000
     23 H           2.1965    4.6154    5.8064 H       1  UNL1        0.0000
     24 C           1.3601    1.7984    6.4170 C.ar    1  UNL1        0.0000
     25 C           2.4130    1.6483    5.5207 C.ar    1  UNL1        0.0000
     26 H           2.3589    2.1398    4.5588 H       1  UNL1        0.0000
     27 C           3.5136    0.8727    5.8348 C.ar    1  UNL1        0.0000
     28 H           4.3208    0.7658    5.1235 H       1  UNL1        0.0000
     29 C           3.5791    0.2271    7.0581 C.ar    1  UNL1        0.0000
     30 H           4.4363   -0.3834    7.3052 H       1  UNL1        0.0000
     31 C           2.5390    0.3640    7.9612 C.ar    1  UNL1        0.0000
     32 H           2.5837   -0.1396    8.9172 H       1  UNL1        0.0000
     33 C           1.4419    1.1433    7.6406 C.ar    1  UNL1        0.0000
     34 H           0.6313    1.2477    8.3473 H       1  UNL1        0.0000
@<TRIPOS>BOND
     1    12    11    1
     2    26    25    1
     3    11     3    1
     4    11     9    2
     5    28    27    1
     6     3     4    1
     7    25    27   ar
     8    25    24   ar
     9    10     9    1
    10    23    22    1
    11    27    29   ar
    12     1    24    1
    13     1    13    1
    14     1     2    1
    15     9     7    1
    16    22    13   ar
    17    22    20   ar
    18    24    33   ar
    19     4     2    1
    20     4     5    1
    21    13    14   ar
    22    21    20    1
    23    20    18   ar
    24    29    30    1
    25    29    31   ar
    26     7     5    2
    27     7     8    1
    28    14    15    1
    29    14    16   ar
    30    33    31   ar
    31    33    34    1
    32     5     6    1
    33    18    16   ar
    34    18    19    1
    35    31    32    1
    36    16    17    1
