@<TRIPOS>MOLECULE
1,4
 30 30 0 0 0
SMALL
GASTEIGER

@<TRIPOS>ATOM
      1 SI         20.5128   -1.1794    5.0431 Si      1  UNL1        0.0000
      2 SI         23.3727   -1.5325    3.8856 Si      1  UNL1        0.0000
      3 H          23.2332   -2.6395    4.8297 H       1  UNL1        0.0000
      4 N          20.2857    0.7400    2.8761 N.pl3   1  UNL1        0.0000
      5 N          21.8351   -0.6908    3.8717 N.3     1  UNL1        0.0000
      6 C          21.5645    0.3175    3.0200 C.3     1  UNL1        0.0000
      7 C          22.3000    1.8882    1.3285 C.2     1  UNL1        0.0000
      8 H          23.0894    2.3493    0.7529 H       1  UNL1        0.0000
      9 C          20.9709    2.2563    1.1439 C.2     1  UNL1        0.0000
     10 H          20.6815    2.9921    0.4111 H       1  UNL1        0.0000
     11 C          20.0258    1.6680    1.9522 C.2     1  UNL1        0.0000
     12 H          18.9934    1.9676    1.8438 H       1  UNL1        0.0000
     13 C          22.5876    0.9254    2.2612 C.2     1  UNL1        0.0000
     14 H          23.6071    0.6332    2.4369 H       1  UNL1        0.0000
     15 C          21.3975   -0.7870    6.7181 C.3     1  UNL1        0.0000
     16 H          22.3858   -1.2327    6.7657 H       1  UNL1        0.0000
     17 H          20.8128   -1.1724    7.5456 H       1  UNL1        0.0000
     18 H          21.5029    0.2828    6.8670 H       1  UNL1        0.0000
     19 C          20.4830   -3.1194    4.9795 C.3     1  UNL1        0.0000
     20 H          20.7896   -3.5061    4.0127 H       1  UNL1        0.0000
     21 H          19.4759   -3.4762    5.1723 H       1  UNL1        0.0000
     22 H          21.1308   -3.5496    5.7349 H       1  UNL1        0.0000
     23 C          24.8058   -0.4153    4.4737 C.3     1  UNL1        0.0000
     24 H          25.4696   -0.1234    3.6645 H       1  UNL1        0.0000
     25 H          25.4130   -0.9384    5.2055 H       1  UNL1        0.0000
     26 H          24.4360    0.4901    4.9455 H       1  UNL1        0.0000
     27 C          23.6931   -2.2738    2.1573 C.3     1  UNL1        0.0000
     28 H          22.9299   -3.0076    1.9152 H       1  UNL1        0.0000
     29 H          24.6529   -2.7798    2.1298 H       1  UNL1        0.0000
     30 H          23.6907   -1.5301    1.3660 H       1  UNL1        0.0000
@<TRIPOS>BOND
     1    10     9    1
     2     8     7    1
     3     9     7    1
     4     9    11    2
     5     7    13    2
     6    30    27    1
     7    12    11    1
     8    28    27    1
     9    11     4    1
    10    29    27    1
    11    27     2    1
    12    13    14    1
    13    13     6    1
    14     4     6    1
    15     6     5    1
    16    24    23    1
    17     5     2    1
    18     5     1    1
    19     2    23    1
    20     2     3    1
    21    20    19    1
    22    23    26    1
    23    23    25    1
    24    19     1    1
    25    19    21    1
    26    19    22    1
    27     1    15    1
    28    15    16    1
    29    15    18    1
    30    15    17    1
