@<TRIPOS>MOLECULE
1,4
 30 30 0 0 0
SMALL
GASTEIGER

@<TRIPOS>ATOM
      1 SI         16.6895   -1.0277    5.0434 Si      1  UNL1        0.0000
      2 SI         14.9537   -3.3278    3.8856 Si      1  UNL1        0.0000
      3 H          14.0646   -2.6533    4.8294 H       1  UNL1        0.0000
      4 N          18.4655   -1.7910    2.8765 N.pl3   1  UNL1        0.0000
      5 N          16.4516   -2.4173    3.8720 N.3     1  UNL1        0.0000
      6 C          17.4602   -2.6872    3.0205 C.3     1  UNL1        0.0000
      7 C          18.4529   -4.1099    1.3294 C.2     1  UNL1        0.0000
      8 H          18.4576   -5.0242    0.7541 H       1  UNL1        0.0000
      9 C          19.4362   -3.1429    1.1446 C.2     1  UNL1        0.0000
     10 H          20.2182   -3.2604    0.4119 H       1  UNL1        0.0000
     11 C          19.3992   -2.0301    1.9526 C.2     1  UNL1        0.0000
     12 H          20.1747   -1.2858    1.8441 H       1  UNL1        0.0000
     13 C          17.4752   -3.8774    2.2620 C.2     1  UNL1        0.0000
     14 H          16.7124   -4.6141    2.4377 H       1  UNL1        0.0000
     15 C          16.5867   -1.9898    6.7185 C.3     1  UNL1        0.0000
     16 H          15.7065   -2.6227    6.7660 H       1  UNL1        0.0000
     17 H          16.5451   -1.2905    7.5458 H       1  UNL1        0.0000
     18 H          17.4604   -2.6160    6.8677 H       1  UNL1        0.0000
     19 C          15.0244   -0.0318    4.9792 C.3     1  UNL1        0.0000
     20 H          14.5363   -0.1042    4.0124 H       1  UNL1        0.0000
     21 H          15.2191    1.0189    5.1716 H       1  UNL1        0.0000
     22 H          14.3279   -0.3773    5.7348 H       1  UNL1        0.0000
     23 C          15.2043   -5.1276    4.4737 C.3     1  UNL1        0.0000
     24 H          15.1220   -5.8484    3.6650 H       1  UNL1        0.0000
     25 H          14.4495   -5.3907    5.2078 H       1  UNL1        0.0000
     26 H          16.1745   -5.2610    4.9429 H       1  UNL1        0.0000
     27 C          14.1522   -3.2345    2.1570 C.3     1  UNL1        0.0000
     28 H          13.8967   -2.2068    1.9157 H       1  UNL1        0.0000
     29 H          13.2350   -3.8142    2.1285 H       1  UNL1        0.0000
     30 H          14.7985   -3.6025    1.3658 H       1  UNL1        0.0000
@<TRIPOS>BOND
     1    10     9    1
     2     8     7    1
     3     9     7    1
     4     9    11    2
     5     7    13    2
     6    30    27    1
     7    12    11    1
     8    28    27    1
     9    11     4    1
    10    29    27    1
    11    27     2    1
    12    13    14    1
    13    13     6    1
    14     4     6    1
    15     6     5    1
    16    24    23    1
    17     5     2    1
    18     5     1    1
    19     2    23    1
    20     2     3    1
    21    20    19    1
    22    23    26    1
    23    23    25    1
    24    19     1    1
    25    19    21    1
    26    19    22    1
    27     1    15    1
    28    15    16    1
    29    15    18    1
    30    15    17    1
