@<TRIPOS>MOLECULE
1,4
 30 30 0 0 0
SMALL
GASTEIGER

@<TRIPOS>ATOM
      1 SI         18.7325    2.2069    5.0434 Si      1  UNL1        0.0000
      2 SI         17.6083    4.8604    3.8860 Si      1  UNL1        0.0000
      3 H          18.6366    5.2931    4.8304 H       1  UNL1        0.0000
      4 N          17.1837    1.0508    2.8765 N.pl3   1  UNL1        0.0000
      5 N          17.6482    3.1080    3.8722 N.3     1  UNL1        0.0000
      6 C          16.9102    2.3695    3.0204 C.3     1  UNL1        0.0000
      7 C          15.1823    2.2212    1.3289 C.2     1  UNL1        0.0000
      8 H          14.3883    2.6744    0.7532 H       1  UNL1        0.0000
      9 C          15.5280    0.8861    1.1442 C.2     1  UNL1        0.0000
     10 H          15.0354    0.2676    0.4115 H       1  UNL1        0.0000
     11 C          16.5100    0.3617    1.9525 C.2     1  UNL1        0.0000
     12 H          16.7667   -0.6821    1.8442 H       1  UNL1        0.0000
     13 C          15.8723    2.9516    2.2615 C.2     1  UNL1        0.0000
     14 H          15.6157    3.9807    2.4371 H       1  UNL1        0.0000
     15 C          17.9507    2.7769    6.7185 C.3     1  UNL1        0.0000
     16 H          17.8426    3.8557    6.7663 H       1  UNL1        0.0000
     17 H          18.5770    2.4631    7.5458 H       1  UNL1        0.0000
     18 H          16.9715    2.3334    6.8675 H       1  UNL1        0.0000
     19 C          20.4274    3.1513    4.9795 C.3     1  UNL1        0.0000
     20 H          20.6090    3.6100    4.0127 H       1  UNL1        0.0000
     21 H          21.2400    2.4574    5.1723 H       1  UNL1        0.0000
     22 H          20.4762    3.9274    5.7349 H       1  UNL1        0.0000
     23 C          15.9242    5.5431    4.4737 C.3     1  UNL1        0.0000
     24 H          15.3398    5.9722    3.6645 H       1  UNL1        0.0000
     25 H          16.0735    6.3304    5.2057 H       1  UNL1        0.0000
     26 H          15.3247    4.7702    4.9453 H       1  UNL1        0.0000
     27 C          18.0905    5.5085    2.1579 C.3     1  UNL1        0.0000
     28 H          19.1074    5.2135    1.9156 H       1  UNL1        0.0000
     29 H          18.0499    6.5927    2.1305 H       1  UNL1        0.0000
     30 H          17.4473    5.1353    1.3666 H       1  UNL1        0.0000
@<TRIPOS>BOND
     1    10     9    1
     2     8     7    1
     3     9     7    1
     4     9    11    2
     5     7    13    2
     6    30    27    1
     7    12    11    1
     8    28    27    1
     9    11     4    1
    10    29    27    1
    11    27     2    1
    12    13    14    1
    13    13     6    1
    14     4     6    1
    15     6     5    1
    16    24    23    1
    17     5     2    1
    18     5     1    1
    19     2    23    1
    20     2     3    1
    21    20    19    1
    22    23    26    1
    23    23    25    1
    24    19     1    1
    25    19    21    1
    26    19    22    1
    27     1    15    1
    28    15    16    1
    29    15    18    1
    30    15    17    1
