@<TRIPOS>MOLECULE
1,11
 30 30 0 0 0
SMALL
GASTEIGER

@<TRIPOS>ATOM
      1 SI          8.7867   16.2381    4.8031 Si      1  UNL1        0.0000
      2 SI          7.8366   16.2378    7.7849 Si      1  UNL1        0.0000
      3 H           9.2930   16.2374    7.9112 H       1  UNL1        0.0000
      4 C           7.2377   14.6506    8.6526 C.3     1  UNL1        0.0000
      5 H           6.1631   14.5029    8.6220 H       1  UNL1        0.0000
      6 H           7.5344   14.6718    9.6966 H       1  UNL1        0.0000
      7 H           7.7000   13.7785    8.2002 H       1  UNL1        0.0000
      8 N           7.4581   16.2381    6.0732 N.pl3   1  UNL1        0.5000
      9 C           4.7208   16.2382    3.8254 C.3     1  UNL1        0.0000
     10 H           4.5749   16.2382    2.7551 H       1  UNL1        0.0000
     11 N           5.9941   16.2381    4.2517 N.pl3   1  UNL1        0.5000
     12 C           6.1988   16.2382    5.5937 C.2     1  UNL1        0.0000
     13 C           5.0949   16.2384    6.4735 C.2     1  UNL1        0.0000
     14 H           5.2809   16.2385    7.5316 H       1  UNL1        0.0000
     15 C           3.8059   16.2385    6.0104 C.2     1  UNL1        0.0000
     16 H           2.9719   16.2386    6.6971 H       1  UNL1        0.0000
     17 C           3.6090   16.2384    4.6340 C.2     1  UNL1        0.0000
     18 H           2.6225   16.2384    4.1990 H       1  UNL1        0.0000
     19 C           9.9177   14.7800    5.3880 C.3     1  UNL1        0.0000
     20 H           9.4482   13.8058    5.3116 H       1  UNL1        0.0000
     21 H          10.2250   14.9147    6.4186 H       1  UNL1        0.0000
     22 H          10.8178   14.7591    4.7830 H       1  UNL1        0.0000
     23 C           7.2384   17.8252    8.6529 C.3     1  UNL1        0.0000
     24 H           6.1639   17.9733    8.6225 H       1  UNL1        0.0000
     25 H           7.5354   17.8038    9.6968 H       1  UNL1        0.0000
     26 H           7.7009   18.6972    8.2004 H       1  UNL1        0.0000
     27 C           9.9175   17.6964    5.3878 C.3     1  UNL1        0.0000
     28 H           9.4491   18.6709    5.3080 H       1  UNL1        0.0000
     29 H          10.2222   17.5638    6.4194 H       1  UNL1        0.0000
     30 H          10.8191   17.7151    4.7848 H       1  UNL1        0.0000
@<TRIPOS>BOND
     1    10     9    1
     2     9    11    1
     3     9    17    1
     4    18    17    1
     5    11    12    1
     6    17    15    2
     7    22    19    1
     8    30    27    1
     9     1    27    1
    10     1    19    1
    11     1     8    1
    12    28    27    1
    13    20    19    1
    14    27    29    1
    15    19    21    1
    16    12     8    1
    17    12    13    2
    18    15    13    1
    19    15    16    1
    20     8     2    1
    21    13    14    1
    22     2     3    1
    23     2     4    1
    24     2    23    1
    25     7     4    1
    26    26    23    1
    27     5     4    1
    28    24    23    1
    29     4     6    1
    30    23    25    1
