@<TRIPOS>MOLECULE
1,2
 23 22 0 0 0
SMALL
GASTEIGER

@<TRIPOS>ATOM
      1 SI          4.1353    6.3157   12.8369 Si      1  UNL1        0.0000
      2 N           5.5418    7.2234   12.3666 N.3     1  UNL1        0.0000
      3 C           4.1743    5.6447   14.6563 C.3     1  UNL1        0.0000
      4 H           5.1732    5.3670   14.9779 H       1  UNL1        0.0000
      5 H           3.5412    4.7682   14.7576 H       1  UNL1        0.0000
      6 H           3.8022    6.3922   15.3521 H       1  UNL1        0.0000
      7 C           2.4608    7.3074   12.9215 C.3     1  UNL1        0.0000
      8 H           2.5347    8.1263   13.6343 H       1  UNL1        0.0000
      9 H           1.6684    6.6509   13.2719 H       1  UNL1        0.0000
     10 H           2.1429    7.7276   11.9729 H       1  UNL1        0.0000
     11 C           6.1036    8.4620   12.8496 C.3     1  UNL1        0.0000
     12 C           5.9028    8.5983   14.3677 C.3     1  UNL1        0.0000
     13 H           4.8437    8.6403   14.6057 H       1  UNL1        0.0000
     14 H           6.3777    9.5080   14.7289 H       1  UNL1        0.0000
     15 H           6.3410    7.7467   14.8834 H       1  UNL1        0.0000
     16 C           5.4082    9.6491   12.1540 C.3     1  UNL1        0.0000
     17 H           5.5792    9.6104   11.0798 H       1  UNL1        0.0000
     18 H           5.7986   10.5907   12.5334 H       1  UNL1        0.0000
     19 H           4.3368    9.6110   12.3429 H       1  UNL1        0.0000
     20 C           7.6123    8.5153   12.5536 C.3     1  UNL1        0.0000
     21 H           8.1212    7.7107   13.0836 H       1  UNL1        0.0000
     22 H           8.0254    9.4655   12.8876 H       1  UNL1        0.0000
     23 H           7.7963    8.4198   11.4844 H       1  UNL1        0.0000
@<TRIPOS>BOND
     1    17    16    1
     2    23    20    1
     3    10     7    1
     4    16    19    1
     5    16    18    1
     6    16    11    1
     7     2     1    1
     8     2    11    1
     9    20    11    1
    10    20    22    1
    11    20    21    1
    12     1     7    1
    13     1     3    1
    14    11    12    1
    15     7     9    1
    16     7     8    1
    17    12    13    1
    18    12    14    1
    19    12    15    1
    20     3     5    1
    21     3     4    1
    22     3     6    1
