@<TRIPOS>MOLECULE
1,6
 49 48 0 0 0
SMALL
GASTEIGER

@<TRIPOS>ATOM
      1 SI          7.9873   10.1593   10.2801 Si      1  UNL1        0.0000
      2 H           8.9041    9.4334    9.3314 H       1  UNL1        0.0000
      3 SI          8.2455    7.1052   11.0590 Si      1  UNL1        0.0000
      4 SI          6.8758    9.1414   13.1091 Si      1  UNL1        0.0000
      5 SI          5.4589    8.4731   10.3322 Si      1  UNL1        0.0000
      6 N           9.1738   11.1507   11.1775 N.3     1  UNL1        0.0000
      7 C           7.1547    8.6954   11.2471 C.3     1  UNL1        0.0000
      8 C          10.1916   11.0487   11.9070 C.3     1  UNL1        0.0000
      9 H          10.6159   10.0671   12.1285 H       1  UNL1        0.0000
     10 C          10.8857   12.2096   12.5388 C.3     1  UNL1        0.0000
     11 H          10.4040   13.1400   12.2409 H       1  UNL1        0.0000
     12 H          11.9379   12.2259   12.2562 H       1  UNL1        0.0000
     13 H          10.8376   12.1155   13.6236 H       1  UNL1        0.0000
     14 C          10.1055    7.3983   11.4109 C.3     1  UNL1        0.0000
     15 H          10.2861    7.7118   12.4318 H       1  UNL1        0.0000
     16 H          10.5176    8.1527   10.7498 H       1  UNL1        0.0000
     17 H          10.6701    6.4839   11.2504 H       1  UNL1        0.0000
     18 C           7.7254    5.6771   12.2147 C.3     1  UNL1        0.0000
     19 H           8.3356    4.7987   12.0272 H       1  UNL1        0.0000
     20 H           6.6921    5.3911   12.0654 H       1  UNL1        0.0000
     21 H           7.8470    5.9394   13.2589 H       1  UNL1        0.0000
     22 C           8.2283    6.3894    9.2835 C.3     1  UNL1        0.0000
     23 H           8.8403    5.4935    9.2310 H       1  UNL1        0.0000
     24 H           8.6308    7.0957    8.5656 H       1  UNL1        0.0000
     25 H           7.2315    6.1206    8.9553 H       1  UNL1        0.0000
     26 C           8.4228    8.8899   14.2097 C.3     1  UNL1        0.0000
     27 H           9.2385    9.5305   13.8947 H       1  UNL1        0.0000
     28 H           8.7780    7.8660   14.2107 H       1  UNL1        0.0000
     29 H           8.1889    9.1511   15.2379 H       1  UNL1        0.0000
     30 C           6.4136   10.9670   13.3717 C.3     1  UNL1        0.0000
     31 H           6.1883   11.1646   14.4156 H       1  UNL1        0.0000
     32 H           5.5506   11.2672   12.7916 H       1  UNL1        0.0000
     33 H           7.2396   11.6128   13.0835 H       1  UNL1        0.0000
     34 C           5.5223    8.0591   13.9162 C.3     1  UNL1        0.0000
     35 H           5.4459    8.2842   14.9756 H       1  UNL1        0.0000
     36 H           5.7407    7.0020   13.8255 H       1  UNL1        0.0000
     37 H           4.5468    8.2317   13.4781 H       1  UNL1        0.0000
     38 C           4.6760    6.7444   10.5628 C.3     1  UNL1        0.0000
     39 H           5.2865    5.9527   10.1443 H       1  UNL1        0.0000
     40 H           3.7094    6.7050   10.0690 H       1  UNL1        0.0000
     41 H           4.5122    6.5174   11.6097 H       1  UNL1        0.0000
     42 C           4.1260    9.7325   10.8448 C.3     1  UNL1        0.0000
     43 H           3.8426    9.6416   11.8863 H       1  UNL1        0.0000
     44 H           3.2276    9.5882   10.2515 H       1  UNL1        0.0000
     45 H           4.4597   10.7497   10.6813 H       1  UNL1        0.0000
     46 C           5.6820    8.7712    8.4573 C.3     1  UNL1        0.0000
     47 H           5.7410    9.8366    8.2594 H       1  UNL1        0.0000
     48 H           4.8413    8.3790    7.8932 H       1  UNL1        0.0000
     49 H           6.5814    8.3140    8.0653 H       1  UNL1        0.0000
@<TRIPOS>BOND
     1    48    46    1
     2    49    46    1
     3    47    46    1
     4    46     5    1
     5    24    22    1
     6    25    22    1
     7    23    22    1
     8    22     3    1
     9     2     1    1
    10    40    38    1
    11    39    38    1
    12    44    42    1
    13     1     6    1
    14     1     7    1
    15     5    38    1
    16     5    42    1
    17     5     7    1
    18    38    41    1
    19    45    42    1
    20    16    14    1
    21    42    43    1
    22     3     7    1
    23     3    14    1
    24     3    18    1
    25     6     8    1
    26     7     4    1
    27    17    14    1
    28    14    15    1
    29     8     9    1
    30     8    10    1
    31    19    18    1
    32    20    18    1
    33    18    21    1
    34    11    10    1
    35    12    10    1
    36    10    13    1
    37    32    30    1
    38    33    30    1
    39     4    30    1
    40     4    34    1
    41     4    26    1
    42    30    31    1
    43    37    34    1
    44    36    34    1
    45    27    26    1
    46    34    35    1
    47    26    28    1
    48    26    29    1
