@<TRIPOS>MOLECULE
1,2
 35 36 0 0 0
SMALL
GASTEIGER

@<TRIPOS>ATOM
      1 SI          5.8849    7.1088   15.1487 Si      1  UNL1        0.0000
      2 N           5.0907    8.3486   14.1101 N.3     1  UNL1        0.0000
      3 C           3.6627    8.5977   14.0764 C.3     1  UNL1        0.0000
      4 C           3.2679    9.2949   12.7761 C.3     1  UNL1        0.0000
      5 C           3.2383    9.4355   15.2851 C.3     1  UNL1        0.0000
      6 C           7.0657    8.0224   16.3318 C.ar    1  UNL1        0.0000
      7 C           8.1402    7.3184   16.8665 C.ar    1  UNL1        0.0000
      8 C           9.0585    7.9304   17.6997 C.ar    1  UNL1        0.0000
      9 C           8.9178    9.2717   18.0166 C.ar    1  UNL1        0.0000
     10 C           7.8505    9.9875   17.5019 C.ar    1  UNL1        0.0000
     11 C           6.9368    9.3661   16.6689 C.ar    1  UNL1        0.0000
     12 C           4.5290    6.3503   16.2555 C.ar    1  UNL1        0.0000
     13 C           4.4732    6.6014   17.6238 C.ar    1  UNL1        0.0000
     14 C           3.4842    6.0408   18.4127 C.ar    1  UNL1        0.0000
     15 C           2.5320    5.2122   17.8447 C.ar    1  UNL1        0.0000
     16 C           2.5810    4.9412   16.4870 C.ar    1  UNL1        0.0000
     17 C           3.5734    5.5015   15.7036 C.ar    1  UNL1        0.0000
     18 H           5.5820    9.2374   14.0663 H       1  UNL1        0.0000
     19 H           3.1649    7.6230   14.1283 H       1  UNL1        0.0000
     20 H           3.7110   10.2890   12.7272 H       1  UNL1        0.0000
     21 H           2.1881    9.3949   12.7119 H       1  UNL1        0.0000
     22 H           3.6117    8.7106   11.9246 H       1  UNL1        0.0000
     23 H           3.5190    8.9307   16.2062 H       1  UNL1        0.0000
     24 H           2.1614    9.5797   15.2835 H       1  UNL1        0.0000
     25 H           3.7149   10.4147   15.2565 H       1  UNL1        0.0000
     26 H           8.2494    6.2715   16.6213 H       1  UNL1        0.0000
     27 H           9.8864    7.3641   18.1025 H       1  UNL1        0.0000
     28 H           9.6343    9.7555   18.6645 H       1  UNL1        0.0000
     29 H           7.7301   11.0324   17.7519 H       1  UNL1        0.0000
     30 H           6.1027    9.9363   16.2835 H       1  UNL1        0.0000
     31 H           5.2155    7.2443   18.0769 H       1  UNL1        0.0000
     32 H           3.4568    6.2506   19.4727 H       1  UNL1        0.0000
     33 H           1.7583    4.7740   18.4585 H       1  UNL1        0.0000
     34 H           1.8465    4.2874   16.0396 H       1  UNL1        0.0000
     35 H           3.6166    5.2723   14.6464 H       1  UNL1        0.0000
@<TRIPOS>BOND
     1    22     4    1
     2    21     4    1
     3    20     4    1
     4     4     3    1
     5    18     2    1
     6     3     2    1
     7     3    19    1
     8     3     5    1
     9     2     1    1
    10    35    17    1
    11     1    12    1
    12     1     6    1
    13    25     5    1
    14    24     5    1
    15     5    23    1
    16    17    12   ar
    17    17    16   ar
    18    34    16    1
    19    12    13   ar
    20    30    11    1
    21     6    11   ar
    22     6     7   ar
    23    16    15   ar
    24    26     7    1
    25    11    10   ar
    26     7     8   ar
    27    10    29    1
    28    10     9   ar
    29    13    31    1
    30    13    14   ar
    31     8     9   ar
    32     8    27    1
    33    15    14   ar
    34    15    33    1
    35     9    28    1
    36    14    32    1
