@<TRIPOS>MOLECULE
1,8,15,22
 22 21 0 0 0
SMALL
GASTEIGER

@<TRIPOS>ATOM
      1 S          -0.0487    1.5069    1.9264 S.3     1  UNL1       -0.0918
      2 C          -1.6354    2.2191    2.4779 C.3     1  UNL1        0.0167
      3 H          -2.1352    2.6230    1.5957 H       1  UNL1        0.0397
      4 H          -2.2410    1.4014    2.8778 H       1  UNL1        0.0397
      5 C          -1.3960    3.3208    3.4987 C.3     1  UNL1        0.0087
      6 H          -0.8158    4.1079    3.0059 H       1  UNL1        0.0435
      7 H          -2.3581    3.7579    3.8203 H       1  UNL1        0.0435
      8 S           0.1549   -0.0567    5.4062 S.3     1  UNL1       -0.0918
      9 C          -0.7444    1.1412    6.4481 C.3     1  UNL1        0.0167
     10 H          -1.4273    0.5730    7.0823 H       1  UNL1        0.0397
     11 H          -0.0087    1.6386    7.0858 H       1  UNL1        0.0397
     12 C          -1.5215    2.1201    5.5814 C.3     1  UNL1        0.0087
     13 H          -2.2532    1.5438    5.0060 H       1  UNL1        0.0435
     14 H          -2.0746    2.8349    6.2163 H       1  UNL1        0.0435
     15 S           2.4379    2.8620    4.4892 S.3     1  UNL1       -0.0918
     16 C           1.3323    4.3081    4.6123 C.3     1  UNL1        0.0167
     17 H           1.8650    5.0787    5.1722 H       1  UNL1        0.0397
     18 H           1.1560    4.6736    3.5970 H       1  UNL1        0.0397
     19 C           0.0445    3.9308    5.3281 C.3     1  UNL1        0.0087
     20 H           0.3104    3.6132    6.3417 H       1  UNL1        0.0435
     21 H          -0.6180    4.8107    5.4100 H       1  UNL1        0.0435
     22 N          -0.6396    2.8275    4.6511 N.3     1  UNL1       -0.2999
@<TRIPOS>BOND
     1     3     2    1
     2     1     2    1
     3     2     4    1
     4     2     5    1
     5     6     5    1
     6     5     7    1
     7     5    22    1
     8    18    16    1
     9    15    16    1
    10    16    17    1
    11    16    19    1
    12    22    19    1
    13    22    12    1
    14    13    12    1
    15    19    21    1
    16    19    20    1
    17     8     9    1
    18    12    14    1
    19    12     9    1
    20     9    10    1
    21     9    11    1
