@<TRIPOS>MOLECULE
1,2,3,4
 99 104 0 0 0
SMALL
GASTEIGER

@<TRIPOS>ATOM
      1 S           0.6004    2.6134    4.8354 S.3     1  UNL1        0.0000
      2 SI          2.7239    2.5900    2.7567 Si      1  UNL1        0.0000
      3 P           0.6764    3.9316    1.1888 P.3     1  UNL1        0.0000
      4 P           2.9679    5.2822    3.7009 P.3     1  UNL1        0.0000
      5 C          -0.3689    2.6592    6.4466 C.3     1  UNL1        0.0000
      6 C           4.4572    3.0449    3.3976 C.ar    1  UNL1        0.0000
      7 C           1.3258    0.9890    4.6063 C.ar    1  UNL1        0.0000
      8 C           2.8604   -0.2739    3.2715 C.ar    1  UNL1        0.0000
      9 H           3.5924   -0.3082    2.4798 H       1  UNL1        0.0000
     10 C           5.5764    2.2332    3.4615 C.ar    1  UNL1        0.0000
     11 H           5.5002    1.1936    3.1792 H       1  UNL1        0.0000
     12 C           3.5055    6.7316    2.6680 C.3     1  UNL1        0.0000
     13 H           4.2777    7.2890    3.2106 H       1  UNL1        0.0000
     14 C           2.2970    0.9419    3.6057 C.ar    1  UNL1        0.0000
     15 C           1.8726    3.0407    0.1360 C.ar    1  UNL1        0.0000
     16 C          -0.3786    2.2756    8.8956 C.3     1  UNL1        0.0000
     17 H           0.1948    1.8680    9.7363 H       1  UNL1        0.0000
     18 C           3.8377    1.6642    0.1954 C.ar    1  UNL1        0.0000
     19 H           4.6254    1.1816    0.7544 H       1  UNL1        0.0000
     20 C          -0.7329    2.6888    1.0864 C.3     1  UNL1        0.0000
     21 H          -1.0698    2.7065    0.0435 H       1  UNL1        0.0000
     22 C           2.8720    2.3923    0.8659 C.ar    1  UNL1        0.0000
     23 C          -1.4665    4.3087    7.9620 C.3     1  UNL1        0.0000
     24 H          -1.6654    5.3742    8.1177 H       1  UNL1        0.0000
     25 C           6.8865    4.0793    4.2540 C.ar    1  UNL1        0.0000
     26 H           7.8364    4.4826    4.5763 H       1  UNL1        0.0000
     27 C           0.4484    2.1281    7.6144 C.3     1  UNL1        0.0000
     28 H           0.7217    1.0824    7.4772 H       1  UNL1        0.0000
     29 H           1.3755    2.6993    7.7053 H       1  UNL1        0.0000
     30 C          -0.6553    4.1406    6.6772 C.3     1  UNL1        0.0000
     31 H          -1.2100    4.5550    5.8335 H       1  UNL1        0.0000
     32 H           0.2828    4.6933    6.7563 H       1  UNL1        0.0000
     33 C           2.7872    5.9907    5.4370 C.3     1  UNL1        0.0000
     34 H           1.7142    6.2233    5.4939 H       1  UNL1        0.0000
     35 C           5.7722    4.8987    4.2038 C.ar    1  UNL1        0.0000
     36 H           5.8678    5.9399    4.4760 H       1  UNL1        0.0000
     37 C           6.7871    2.7439    3.8966 C.ar    1  UNL1        0.0000
     38 H           7.6587    2.1070    3.9501 H       1  UNL1        0.0000
     39 C           4.5524    4.3769    3.7929 C.ar    1  UNL1        0.0000
     40 C           2.7929    2.1726   -1.9020 C.ar    1  UNL1        0.0000
     41 H           2.7562    2.0751   -2.9779 H       1  UNL1        0.0000
     42 C           1.8219    2.9093   -1.2442 C.ar    1  UNL1        0.0000
     43 H           1.0276    3.3657   -1.8157 H       1  UNL1        0.0000
     44 C           2.4835   -1.4380    3.9200 C.ar    1  UNL1        0.0000
     45 H           2.9311   -2.3837    3.6525 H       1  UNL1        0.0000
     46 C           3.5657    7.2503    5.8026 C.3     1  UNL1        0.0000
     47 H           3.3118    7.5315    6.8248 H       1  UNL1        0.0000
     48 H           3.3113    8.0856    5.1560 H       1  UNL1        0.0000
     49 H           4.6392    7.0838    5.7643 H       1  UNL1        0.0000
     50 C           0.9230   -0.1734    5.2413 C.ar    1  UNL1        0.0000
     51 H           0.1436   -0.1765    5.9843 H       1  UNL1        0.0000
     52 C           3.1080    4.8626    6.4167 C.3     1  UNL1        0.0000
     53 H           4.1833    4.7012    6.4752 H       1  UNL1        0.0000
     54 H           2.6485    3.9299    6.0829 H       1  UNL1        0.0000
     55 H           2.7434    5.1018    7.4156 H       1  UNL1        0.0000
     56 C          -1.6937    1.9265    6.2881 C.3     1  UNL1        0.0000
     57 H          -1.5474    0.8685    6.0674 H       1  UNL1        0.0000
     58 H          -2.2521    2.3626    5.4554 H       1  UNL1        0.0000
     59 C           3.8084    1.5615   -1.1858 C.ar    1  UNL1        0.0000
     60 H           4.5702    0.9976   -1.7050 H       1  UNL1        0.0000
     61 C           1.5133   -1.3810    4.9032 C.ar    1  UNL1        0.0000
     62 H           1.1944   -2.2818    5.4072 H       1  UNL1        0.0000
     63 C          -2.4961    2.0755    7.5835 C.3     1  UNL1        0.0000
     64 H          -3.4386    1.5250    7.4842 H       1  UNL1        0.0000
     65 C          -1.6910    1.5052    8.7513 C.3     1  UNL1        0.0000
     66 H          -1.4847    0.4451    8.5814 H       1  UNL1        0.0000
     67 H          -2.2703    1.5866    9.6737 H       1  UNL1        0.0000
     68 C          -1.8644    3.1196    2.0141 C.3     1  UNL1        0.0000
     69 H          -2.7622    2.5302    1.8282 H       1  UNL1        0.0000
     70 H          -2.1041    4.1749    1.8952 H       1  UNL1        0.0000
     71 H          -1.5659    2.9700    3.0526 H       1  UNL1        0.0000
     72 C          -0.2949    1.2664    1.4112 C.3     1  UNL1        0.0000
     73 H           0.0317    1.1835    2.4443 H       1  UNL1        0.0000
     74 H           0.5216    0.9419    0.7694 H       1  UNL1        0.0000
     75 H          -1.1336    0.5854    1.2680 H       1  UNL1        0.0000
     76 C          -0.6753    3.7530    9.1442 C.3     1  UNL1        0.0000
     77 H           0.2599    4.3056    9.2622 H       1  UNL1        0.0000
     78 H          -1.2497    3.8678   10.0662 H       1  UNL1        0.0000
     79 C          -2.7878    3.5538    7.8321 C.3     1  UNL1        0.0000
     80 H          -3.3690    3.9635    7.0032 H       1  UNL1        0.0000
     81 H          -3.3767    3.6696    8.7449 H       1  UNL1        0.0000
     82 C          -0.0497    5.3468    0.1628 C.3     1  UNL1        0.0000
     83 H          -0.4321    6.0102    0.9536 H       1  UNL1        0.0000
     84 C           4.1106    6.1620    1.3861 C.3     1  UNL1        0.0000
     85 H           3.4921    5.3442    1.0080 H       1  UNL1        0.0000
     86 H           5.1034    5.7584    1.5768 H       1  UNL1        0.0000
     87 H           4.1954    6.9308    0.6193 H       1  UNL1        0.0000
     88 C          -1.2062    5.0542   -0.7942 C.3     1  UNL1        0.0000
     89 H          -1.4787    5.9855   -1.2910 H       1  UNL1        0.0000
     90 H          -2.0896    4.6884   -0.2791 H       1  UNL1        0.0000
     91 H          -0.9277    4.3403   -1.5666 H       1  UNL1        0.0000
     92 C           2.2958    7.6231    2.4190 C.3     1  UNL1        0.0000
     93 H           2.5197    8.3951    1.6840 H       1  UNL1        0.0000
     94 H           1.9738    8.1038    3.3407 H       1  UNL1        0.0000
     95 H           1.4605    7.0233    2.0641 H       1  UNL1        0.0000
     96 C           1.0473    6.0959   -0.5937 C.3     1  UNL1        0.0000
     97 H           1.3694    5.5423   -1.4723 H       1  UNL1        0.0000
     98 H           1.9121    6.2629    0.0367 H       1  UNL1        0.0000
     99 H           0.6719    7.0645   -0.9222 H       1  UNL1        0.0000
@<TRIPOS>BOND
     1    41    40    1
     2    40    42   ar
     3    40    59   ar
     4    43    42    1
     5    60    59    1
     6    91    88    1
     7    97    96    1
     8    89    88    1
     9    42    15   ar
    10    59    18   ar
    11    99    96    1
    12    88    90    1
    13    88    82    1
    14    96    98    1
    15    96    82    1
    16    21    20    1
    17    15    22   ar
    18    15     3    1
    19    82    83    1
    20    82     3    1
    21    18    19    1
    22    18    22   ar
    23    87    84    1
    24    74    72    1
    25    22     2    1
    26    85    84    1
    27    20     3    1
    28    20    72    1
    29    20    68    1
    30    75    72    1
    31    84    86    1
    32    84    12    1
    33    72    73    1
    34    93    92    1
    35    69    68    1
    36    70    68    1
    37    68    71    1
    38    95    92    1
    39    92    12    1
    40    92    94    1
    41     9     8    1
    42    12    13    1
    43    12     4    1
    44     2     6    1
    45     2    14    1
    46    11    10    1
    47     8    14   ar
    48     8    44   ar
    49     6    10   ar
    50     6    39   ar
    51    10    37   ar
    52    14     7   ar
    53    45    44    1
    54     4    39    1
    55     4    33    1
    56    39    35   ar
    57    37    38    1
    58    37    25   ar
    59    44    61   ar
    60    35    25   ar
    61    35    36    1
    62    25    26    1
    63     7     1    1
    64     7    50   ar
    65     1     5    1
    66    61    50   ar
    67    61    62    1
    68    48    46    1
    69    50    51    1
    70    33    34    1
    71    33    46    1
    72    33    52    1
    73    58    56    1
    74    49    46    1
    75    46    47    1
    76    31    30    1
    77    57    56    1
    78    54    52    1
    79    56     5    1
    80    56    63    1
    81    52    53    1
    82    52    55    1
    83     5    30    1
    84     5    27    1
    85    30    32    1
    86    30    23    1
    87    80    79    1
    88    28    27    1
    89    64    63    1
    90    63    79    1
    91    63    65    1
    92    27    29    1
    93    27    16    1
    94    79    23    1
    95    79    81    1
    96    23    24    1
    97    23    76    1
    98    66    65    1
    99    65    16    1
   100    65    67    1
   101    16    76    1
   102    16    17    1
   103    76    77    1
   104    76    78    1
