@<TRIPOS>MOLECULE
1,2,6,7
 71 71 0 0 0
SMALL
GASTEIGER

@<TRIPOS>ATOM
      1 CL          4.1803    5.2396   -2.1698 Cl      1  UNL1        0.0000
      2 SI          4.7532    2.5332   -4.3016 Si      1  UNL1        0.0000
      3 SI          5.4881    0.2595   -4.4082 Si      1  UNL1        0.0000
      4 SI          2.3943    2.5102   -3.9264 Si      1  UNL1        0.0000
      5 SI          5.1599    3.5574   -6.4156 Si      1  UNL1        0.0000
      6 N           7.1591    4.6391   -3.3040 N.pl3   1  UNL1        0.0000
      7 C           8.0491    5.3335   -4.0181 C.ar    1  UNL1        0.0000
      8 C           7.8529    6.7164   -4.2938 C.ar    1  UNL1        0.0000
      9 C           8.7934    7.4073   -5.0328 C.ar    1  UNL1        0.0000
     10 C           9.9257    6.7794   -5.5239 C.ar    1  UNL1        0.0000
     11 C          10.1323    5.4359   -5.2580 C.ar    1  UNL1        0.0000
     12 C           9.2222    4.7038   -4.5218 C.ar    1  UNL1        0.0000
     13 C           6.6361    7.3906   -3.7059 C.3     1  UNL1        0.0000
     14 C           6.1843    8.6382   -4.4637 C.3     1  UNL1        0.0000
     15 C           6.9120    7.7311   -2.2380 C.3     1  UNL1        0.0000
     16 C           9.4438    3.2552   -4.1631 C.3     1  UNL1        0.0000
     17 C          10.3274    2.4933   -5.1489 C.3     1  UNL1        0.0000
     18 C          10.0320    3.1854   -2.7503 C.3     1  UNL1        0.0000
     19 C           7.3864   -0.0062   -4.3679 C.3     1  UNL1        0.0000
     20 C           4.7946   -0.7733   -2.9409 C.3     1  UNL1        0.0000
     21 C           4.8966   -0.6596   -5.9926 C.3     1  UNL1        0.0000
     22 C           1.9729    2.2157   -2.0793 C.3     1  UNL1        0.0000
     23 C           1.4793    1.1231   -4.8927 C.3     1  UNL1        0.0000
     24 C           1.5219    4.1380   -4.4437 C.3     1  UNL1        0.0000
     25 C           3.9272    2.9065   -7.7495 C.3     1  UNL1        0.0000
     26 C           4.9710    5.4642   -6.4115 C.3     1  UNL1        0.0000
     27 C           6.9107    3.2097   -7.1211 C.3     1  UNL1        0.0000
     28 H           8.6519    8.4592   -5.2354 H       1  UNL1        0.0000
     29 H          10.6491    7.3376   -6.1028 H       1  UNL1        0.0000
     30 H          11.0271    4.9611   -5.6340 H       1  UNL1        0.0000
     31 H           5.8205    6.6601   -3.7291 H       1  UNL1        0.0000
     32 H           5.2129    8.9582   -4.0907 H       1  UNL1        0.0000
     33 H           6.8837    9.4609   -4.3235 H       1  UNL1        0.0000
     34 H           6.0916    8.4328   -5.5281 H       1  UNL1        0.0000
     35 H           7.1451    6.8206   -1.6899 H       1  UNL1        0.0000
     36 H           6.0377    8.1942   -1.7839 H       1  UNL1        0.0000
     37 H           7.7553    8.4169   -2.1563 H       1  UNL1        0.0000
     38 H           8.4557    2.7824   -4.1254 H       1  UNL1        0.0000
     39 H          10.3027    1.4312   -4.9140 H       1  UNL1        0.0000
     40 H           9.9747    2.6295   -6.1686 H       1  UNL1        0.0000
     41 H          11.3623    2.8255   -5.0890 H       1  UNL1        0.0000
     42 H          10.1959    2.1505   -2.4566 H       1  UNL1        0.0000
     43 H           9.3262    3.6347   -2.0551 H       1  UNL1        0.0000
     44 H          10.9787    3.7221   -2.7012 H       1  UNL1        0.0000
     45 H           7.6713   -1.0553   -4.3284 H       1  UNL1        0.0000
     46 H           7.8008    0.4866   -3.4947 H       1  UNL1        0.0000
     47 H           7.8586    0.4318   -5.2411 H       1  UNL1        0.0000
     48 H           5.1405   -1.8041   -2.9428 H       1  UNL1        0.0000
     49 H           3.7090   -0.7923   -2.9511 H       1  UNL1        0.0000
     50 H           5.1047   -0.3275   -2.0008 H       1  UNL1        0.0000
     51 H           5.1640   -1.7124   -5.9862 H       1  UNL1        0.0000
     52 H           3.8195   -0.5961   -6.0977 H       1  UNL1        0.0000
     53 H           5.3353   -0.2163   -6.8800 H       1  UNL1        0.0000
     54 H           2.3588    1.2590   -1.7367 H       1  UNL1        0.0000
     55 H           0.9045    2.2325   -1.8734 H       1  UNL1        0.0000
     56 H           2.4315    2.9904   -1.4720 H       1  UNL1        0.0000
     57 H           1.8218    0.1415   -4.5840 H       1  UNL1        0.0000
     58 H           0.4036    1.1569   -4.7447 H       1  UNL1        0.0000
     59 H           1.6669    1.2125   -5.9569 H       1  UNL1        0.0000
     60 H           0.4582    4.1391   -4.2162 H       1  UNL1        0.0000
     61 H           1.6331    4.3231   -5.5081 H       1  UNL1        0.0000
     62 H           1.9708    4.9740   -3.9184 H       1  UNL1        0.0000
     63 H           3.9752    1.8258   -7.8239 H       1  UNL1        0.0000
     64 H           2.9050    3.1672   -7.4962 H       1  UNL1        0.0000
     65 H           4.1338    3.3128   -8.7357 H       1  UNL1        0.0000
     66 H           4.1887    5.7707   -5.7241 H       1  UNL1        0.0000
     67 H           5.8957    5.9205   -6.0736 H       1  UNL1        0.0000
     68 H           4.7309    5.8768   -7.3888 H       1  UNL1        0.0000
     69 H           7.1094    2.1443   -7.1808 H       1  UNL1        0.0000
     70 H           7.6576    3.6507   -6.4696 H       1  UNL1        0.0000
     71 H           7.0511    3.6280   -8.1148 H       1  UNL1        0.0000
@<TRIPOS>BOND
     1    65    25    1
     2    71    27    1
     3    63    25    1
     4    25    64    1
     5    25     5    1
     6    68    26    1
     7    69    27    1
     8    27    70    1
     9    27     5    1
    10    53    21    1
    11     5    26    1
    12     5     2    1
    13    26    67    1
    14    26    66    1
    15    40    17    1
    16    29    10    1
    17    52    21    1
    18    21    51    1
    19    21     3    1
    20    59    23    1
    21    30    11    1
    22    34    14    1
    23    10    11   ar
    24    10     9   ar
    25    61    24    1
    26    11    12   ar
    27    47    19    1
    28    28     9    1
    29    17    41    1
    30    17    39    1
    31    17    16    1
    32     9     8   ar
    33    23    58    1
    34    23    57    1
    35    23     4    1
    36    12    16    1
    37    12     7   ar
    38    14    33    1
    39    14    32    1
    40    14    13    1
    41    24    60    1
    42    24     4    1
    43    24    62    1
    44     3    19    1
    45     3     2    1
    46     3    20    1
    47    19    45    1
    48    19    46    1
    49     2     4    1
    50     8     7   ar
    51     8    13    1
    52    16    38    1
    53    16    18    1
    54     7     6    1
    55     4    22    1
    56    31    13    1
    57    13    15    1
    58    49    20    1
    59    48    20    1
    60    20    50    1
    61    18    44    1
    62    18    42    1
    63    18    43    1
    64    15    37    1
    65    15    36    1
    66    15    35    1
    67    22    55    1
    68    22    54    1
    69    22    56    1
    70     2     6    0
    71     2     1    0
