@<TRIPOS>MOLECULE
5,12
 38 38 0 0 0
SMALL
GASTEIGER

@<TRIPOS>ATOM
      1 SI         -0.9728   17.6583    7.9631 Si      1  UNL1        0.0000
      2 C          -0.0436   15.9878    7.9138 C.3     1  UNL1        0.0000
      3 C          -2.3842   17.5193    9.2631 C.3     1  UNL1        0.0000
      4 C          -1.7309   18.0300    6.2446 C.3     1  UNL1        0.0000
      5 N           0.2409   18.8436    8.3491 N.pl3   1  UNL1        0.0000
      6 C          -0.0385   20.1976    8.3702 C.ar    1  UNL1        0.0000
      7 C          -1.3098   20.7544    8.4969 C.ar    1  UNL1        0.0000
      8 C          -1.4924   22.1256    8.4675 C.ar    1  UNL1        0.0000
      9 C          -0.4094   22.9693    8.2892 C.ar    1  UNL1        0.0000
     10 C           0.8606   22.4424    8.1301 C.ar    1  UNL1        0.0000
     11 C           1.0770   21.0683    8.1767 C.ar    1  UNL1        0.0000
     12 N           2.3030   20.4490    7.9829 N.pl3   1  UNL1        0.0000
     13 SI          3.4724   21.0222    6.8327 Si      1  UNL1        0.0000
     14 C           4.7694   19.6249    6.7190 C.3     1  UNL1        0.0000
     15 C           4.4508   22.6106    7.3013 C.3     1  UNL1        0.0000
     16 C           2.6039   21.3220    5.1536 C.3     1  UNL1        0.0000
     17 H           1.0357   16.1490    7.8965 H       1  UNL1        0.0000
     18 H          -0.3127   15.4217    7.0293 H       1  UNL1        0.0000
     19 H          -0.2782   15.3658    8.7715 H       1  UNL1        0.0000
     20 H          -2.1065   17.9460   10.2239 H       1  UNL1        0.0000
     21 H          -2.6526   16.4806    9.4296 H       1  UNL1        0.0000
     22 H          -3.2831   18.0290    8.9300 H       1  UNL1        0.0000
     23 H          -2.1538   19.0293    6.2035 H       1  UNL1        0.0000
     24 H          -2.5219   17.3251    6.0102 H       1  UNL1        0.0000
     25 H          -0.9816   17.9599    5.4609 H       1  UNL1        0.0000
     26 H          -2.1556   20.1014    8.6380 H       1  UNL1        0.0000
     27 H          -2.4857   22.5333    8.5812 H       1  UNL1        0.0000
     28 H          -0.5508   24.0395    8.2633 H       1  UNL1        0.0000
     29 H           1.7005   23.1003    7.9709 H       1  UNL1        0.0000
     30 H           4.9387   19.1573    7.6923 H       1  UNL1        0.0000
     31 H           5.7189   20.0064    6.3581 H       1  UNL1        0.0000
     32 H           4.4526   18.8457    6.0321 H       1  UNL1        0.0000
     33 H           3.8211   23.4874    7.4169 H       1  UNL1        0.0000
     34 H           5.1615   22.8327    6.5110 H       1  UNL1        0.0000
     35 H           5.0216   22.4891    8.2184 H       1  UNL1        0.0000
     36 H           2.0662   20.4339    4.8317 H       1  UNL1        0.0000
     37 H           3.3194   21.5785    4.3798 H       1  UNL1        0.0000
     38 H           1.8843   22.1324    5.2226 H       1  UNL1        0.0000
@<TRIPOS>BOND
     1    37    16    1
     2    36    16    1
     3    16    38    1
     4    16    13    1
     5    25     4    1
     6    24     4    1
     7    32    14    1
     8    23     4    1
     9     4     1    1
    10    31    14    1
    11    34    15    1
    12    14    13    1
    13    14    30    1
    14    13    15    1
    15    13    12    1
    16    18     2    1
    17    15    33    1
    18    15    35    1
    19    17     2    1
    20     2     1    1
    21     2    19    1
    22     1     5    1
    23     1     3    1
    24    29    10    1
    25    12    11    1
    26    10    11   ar
    27    10     9   ar
    28    11     6   ar
    29    28     9    1
    30     9     8   ar
    31     5     6    1
    32     6     7   ar
    33     8     7   ar
    34     8    27    1
    35     7    26    1
    36    22     3    1
    37     3    21    1
    38     3    20    1
