@<TRIPOS>MOLECULE
6,7
 31 30 0 0 0
SMALL
GASTEIGER

@<TRIPOS>ATOM
      1 CL          4.7052   -1.8882   -2.4356 Cl      1  UNL1        0.0000
      2 CL          2.0226   -0.2926   -2.4000 Cl      1  UNL1        0.0000
      3 P           3.7017   -0.5439   -1.4020 P.3     1  UNL1        0.0000
      4 SI          5.3593    1.6596   -2.5329 Si      1  UNL1        0.0000
      5 SI          2.4141   -2.2175    0.7362 Si      1  UNL1        0.0000
      6 N           4.4990    0.8289   -1.2515 N.3     1  UNL1        0.0000
      7 N           3.4716   -0.9702    0.1041 N.3     1  UNL1        0.0000
      8 C           4.4534    1.3579   -4.1824 C.3     1  UNL1        0.0000
      9 C           5.2848    3.4968   -2.0411 C.3     1  UNL1        0.0000
     10 C           7.1135    0.8985   -2.5604 C.3     1  UNL1        0.0000
     11 C           2.0607   -3.4743   -0.6534 C.3     1  UNL1        0.0000
     12 C           0.8124   -1.3644    1.3183 C.3     1  UNL1        0.0000
     13 C           3.4228   -3.0334    2.1322 C.3     1  UNL1        0.0000
     14 H           4.4015    0.3020   -4.4342 H       1  UNL1        0.0000
     15 H           3.4378    1.7437   -4.1636 H       1  UNL1        0.0000
     16 H           4.9802    1.8608   -4.9864 H       1  UNL1        0.0000
     17 H           4.9630    3.6075   -1.0073 H       1  UNL1        0.0000
     18 H           6.2526    3.9735   -2.1490 H       1  UNL1        0.0000
     19 H           4.5814    4.0415   -2.6630 H       1  UNL1        0.0000
     20 H           7.3914    0.4958   -1.5889 H       1  UNL1        0.0000
     21 H           7.1783    0.0865   -3.2803 H       1  UNL1        0.0000
     22 H           7.8566    1.6390   -2.8369 H       1  UNL1        0.0000
     23 H           1.5574   -3.0197   -1.5019 H       1  UNL1        0.0000
     24 H           2.9712   -3.9410   -1.0184 H       1  UNL1        0.0000
     25 H           1.4195   -4.2629   -0.2757 H       1  UNL1        0.0000
     26 H           1.0249   -0.5904    2.0520 H       1  UNL1        0.0000
     27 H           0.2827   -0.8889    0.4960 H       1  UNL1        0.0000
     28 H           0.1428   -2.0837    1.7776 H       1  UNL1        0.0000
     29 H           3.6818   -2.3170    2.9066 H       1  UNL1        0.0000
     30 H           2.8456   -3.8272    2.5928 H       1  UNL1        0.0000
     31 H           4.3489   -3.4664    1.7618 H       1  UNL1        0.0000
@<TRIPOS>BOND
     1    16     8    1
     2    14     8    1
     3     8    15    1
     4     8     4    1
     5    21    10    1
     6    22    10    1
     7    19     9    1
     8    10     4    1
     9    10    20    1
    10     4     9    1
    11     4     6    1
    12     1     3    1
    13     2     3    1
    14    18     9    1
    15     9    17    1
    16    23    11    1
    17     3     6    1
    18     3     7    1
    19    24    11    1
    20    11    25    1
    21    11     5    1
    22     7     5    1
    23    27    12    1
    24     5    12    1
    25     5    13    1
    26    12    28    1
    27    12    26    1
    28    31    13    1
    29    13    30    1
    30    13    29    1
