@<TRIPOS>MOLECULE
5,7
 31 30 0 0 0
SMALL
GASTEIGER

@<TRIPOS>ATOM
      1 P          -2.6724    1.7055    9.2598 P.3     1  UNL1        0.0000
      2 CL         -2.5822   -0.0728    8.4332 Cl      1  UNL1        0.0000
      3 SI         -4.4442    3.1172    7.2454 Si      1  UNL1        0.0000
      4 SI         -0.2475    1.5439   11.0734 Si      1  UNL1        0.0000
      5 N          -3.0046    2.8592    8.2177 N.3     1  UNL1        0.0000
      6 C          -0.8482   -0.2217   11.4638 C.3     1  UNL1        0.0000
      7 N          -1.2675    2.2089    9.8078 N.3     1  UNL1        0.0000
      8 C          -0.4703    2.7119   12.5611 C.3     1  UNL1        0.0000
      9 CL         -4.0287    1.5435   10.6771 Cl      1  UNL1        0.0000
     10 C          -5.3695    4.5514    8.0903 C.3     1  UNL1        0.0000
     11 C           1.4896    1.5554   10.2978 C.3     1  UNL1        0.0000
     12 C          -3.7504    3.5165    5.5197 C.3     1  UNL1        0.0000
     13 C          -5.4691    1.5109    7.2523 C.3     1  UNL1        0.0000
     14 H          -1.8997   -0.2454   11.7373 H       1  UNL1        0.0000
     15 H          -0.2837   -0.6249   12.2972 H       1  UNL1        0.0000
     16 H          -0.7092   -0.8927   10.6212 H       1  UNL1        0.0000
     17 H          -1.4933    2.7045   12.9310 H       1  UNL1        0.0000
     18 H          -0.2349    3.7365   12.2813 H       1  UNL1        0.0000
     19 H           0.1825    2.4307   13.3804 H       1  UNL1        0.0000
     20 H          -5.7012    4.2846    9.0915 H       1  UNL1        0.0000
     21 H          -6.2422    4.8455    7.5172 H       1  UNL1        0.0000
     22 H          -4.7222    5.4205    8.1849 H       1  UNL1        0.0000
     23 H           1.5494    0.8937    9.4372 H       1  UNL1        0.0000
     24 H           2.2364    1.2374   11.0165 H       1  UNL1        0.0000
     25 H           1.7522    2.5544    9.9591 H       1  UNL1        0.0000
     26 H          -3.2101    2.6720    5.0990 H       1  UNL1        0.0000
     27 H          -3.0590    4.3540    5.5679 H       1  UNL1        0.0000
     28 H          -4.5478    3.7785    4.8334 H       1  UNL1        0.0000
     29 H          -5.7175    1.1876    8.2597 H       1  UNL1        0.0000
     30 H          -4.9469    0.6950    6.7612 H       1  UNL1        0.0000
     31 H          -6.4005    1.6682    6.7198 H       1  UNL1        0.0000
@<TRIPOS>BOND
     1    28    12    1
     2    26    12    1
     3    12    27    1
     4    12     3    1
     5    31    13    1
     6    30    13    1
     7     3    13    1
     8     3    10    1
     9     3     5    1
    10    13    29    1
    11    21    10    1
    12    10    22    1
    13    10    20    1
    14     5     1    1
    15     2     1    1
    16     1     7    1
    17     1     9    1
    18    23    11    1
    19     7     4    1
    20    25    11    1
    21    11    24    1
    22    11     4    1
    23    16     6    1
    24     4     6    1
    25     4     8    1
    26     6    14    1
    27     6    15    1
    28    18     8    1
    29     8    17    1
    30     8    19    1
