@<TRIPOS>MOLECULE
1,2
 24 23 0 0 0
SMALL
GASTEIGER

@<TRIPOS>ATOM
      1 N           8.3402   11.8635    0.8674 N.3     1  UNL1       -0.3071
      2 N           7.1493    9.9898   -0.8919 N.3     1  UNL1       -0.3071
      3 C           8.8295   11.7190   -0.5034 C.3     1  UNL1        0.0111
      4 H           9.9033   11.9545   -0.5730 H       1  UNL1        0.0439
      5 H           8.2926   12.4242   -1.1418 H       1  UNL1        0.0439
      6 C           8.5753   10.2987   -0.9960 C.3     1  UNL1        0.0111
      7 H           8.9346   10.1898   -2.0316 H       1  UNL1        0.0439
      8 H           9.1319    9.5942   -0.3739 H       1  UNL1        0.0439
      9 C           8.1473   13.2778    1.1795 C.3     1  UNL1       -0.0130
     10 H           7.3946   13.7039    0.5202 H       1  UNL1        0.0391
     11 H           9.0838   13.8405    1.0684 H       1  UNL1        0.0391
     12 H           7.8007   13.3537    2.2077 H       1  UNL1        0.0391
     13 C           6.9454    8.5428   -0.9057 C.3     1  UNL1       -0.0130
     14 H           7.4826    8.0845   -0.0774 H       1  UNL1        0.0391
     15 H           7.2898    8.0991   -1.8496 H       1  UNL1        0.0391
     16 H           5.8821    8.3529   -0.7764 H       1  UNL1        0.0391
     17 C           9.3306   11.3387    1.8052 C.3     1  UNL1       -0.0130
     18 H           8.9379   11.4372    2.8128 H       1  UNL1        0.0391
     19 H          10.2742   11.8977    1.7316 H       1  UNL1        0.0391
     20 H           9.5330   10.2896    1.6035 H       1  UNL1        0.0391
     21 C           6.4361   10.5496   -2.0395 C.3     1  UNL1       -0.0130
     22 H           5.3841   10.2817   -1.9558 H       1  UNL1        0.0391
     23 H           6.8329   10.1483   -2.9827 H       1  UNL1        0.0391
     24 H           6.5263   11.6335   -2.0604 H       1  UNL1        0.0391
@<TRIPOS>BOND
     1    23    21    1
     2    24    21    1
     3    21    22    1
     4    21     2    1
     5     7     6    1
     6    15    13    1
     7     5     3    1
     8     6     2    1
     9     6     3    1
    10     6     8    1
    11    13     2    1
    12    13    16    1
    13    13    14    1
    14     4     3    1
    15     3     1    1
    16    10     9    1
    17     1     9    1
    18     1    17    1
    19    11     9    1
    20     9    12    1
    21    20    17    1
    22    19    17    1
    23    17    18    1
