@<TRIPOS>MOLECULE
1,2
 40 40 0 0 0
SMALL
GASTEIGER

@<TRIPOS>ATOM
      1 N           8.4670    1.6621    4.9173 N.3     1  UNL1        0.0000
      2 N           7.6183    2.1511    2.8933 N.3     1  UNL1        0.0000
      3 SI          9.5888    1.3163    6.1860 Si      1  UNL1        0.0000
      4 SI          7.5370    2.2115    1.1716 Si      1  UNL1        0.0000
      5 C           8.6664    1.8253    3.6314 C.3     1  UNL1        0.0000
      6 C          10.0146    1.6735    3.0370 C.ar    1  UNL1        0.0000
      7 C          10.8011    2.7980    2.8187 C.ar    1  UNL1        0.0000
      8 C          12.0664    2.6672    2.2744 C.ar    1  UNL1        0.0000
      9 C          12.5545    1.4149    1.9408 C.ar    1  UNL1        0.0000
     10 C          11.7724    0.2923    2.1554 C.ar    1  UNL1        0.0000
     11 C          10.5078    0.4185    2.7033 C.ar    1  UNL1        0.0000
     12 C          10.8819    2.7046    6.4294 C.3     1  UNL1        0.0000
     13 C          10.5530   -0.3316    6.0139 C.3     1  UNL1        0.0000
     14 C           8.4007    1.2046    7.6764 C.3     1  UNL1        0.0000
     15 C           5.6485    2.2757    0.8456 C.3     1  UNL1        0.0000
     16 C           8.3995    3.7590    0.4301 C.3     1  UNL1        0.0000
     17 C           8.2461    0.7064    0.2271 C.3     1  UNL1        0.0000
     18 H          10.4177    3.7721    3.0831 H       1  UNL1        0.0000
     19 H          12.6746    3.5450    2.1097 H       1  UNL1        0.0000
     20 H          13.5421    1.3141    1.5148 H       1  UNL1        0.0000
     21 H          12.1500   -0.6860    1.8949 H       1  UNL1        0.0000
     22 H           9.8937   -0.4528    2.8695 H       1  UNL1        0.0000
     23 H          11.4462    2.5622    7.3453 H       1  UNL1        0.0000
     24 H          11.5897    2.7313    5.6059 H       1  UNL1        0.0000
     25 H          10.3969    3.6735    6.4834 H       1  UNL1        0.0000
     26 H          11.0945   -0.5522    6.9283 H       1  UNL1        0.0000
     27 H          11.2772   -0.2854    5.2066 H       1  UNL1        0.0000
     28 H           9.8905   -1.1690    5.8177 H       1  UNL1        0.0000
     29 H           8.8748    0.7875    8.5592 H       1  UNL1        0.0000
     30 H           8.0291    2.1946    7.9276 H       1  UNL1        0.0000
     31 H           7.5410    0.5807    7.4247 H       1  UNL1        0.0000
     32 H           5.3771    1.6468    0.0044 H       1  UNL1        0.0000
     33 H           5.3042    3.2803    0.6189 H       1  UNL1        0.0000
     34 H           5.1008    1.9211    1.7203 H       1  UNL1        0.0000
     35 H           8.0255    3.9747   -0.5658 H       1  UNL1        0.0000
     36 H           9.4701    3.5960    0.3501 H       1  UNL1        0.0000
     37 H           8.2536    4.6490    1.0355 H       1  UNL1        0.0000
     38 H           7.9956    0.7600   -0.8282 H       1  UNL1        0.0000
     39 H           9.3278    0.6607    0.3065 H       1  UNL1        0.0000
     40 H           7.8487   -0.2283    0.6109 H       1  UNL1        0.0000
@<TRIPOS>BOND
     1    38    17    1
     2    35    16    1
     3    32    15    1
     4    17    39    1
     5    17    40    1
     6    17     4    1
     7    36    16    1
     8    16    37    1
     9    16     4    1
    10    33    15    1
    11    15     4    1
    12    15    34    1
    13     4     2    1
    14    20     9    1
    15    21    10    1
    16     9    10   ar
    17     9     8   ar
    18    19     8    1
    19    10    11   ar
    20     8     7   ar
    21    11    22    1
    22    11     6   ar
    23     7     6   ar
    24     7    18    1
    25     2     5    1
    26     6     5    1
    27     5     1    1
    28     1     3    1
    29    27    13    1
    30    24    12    1
    31    28    13    1
    32    13     3    1
    33    13    26    1
    34     3    12    1
    35     3    14    1
    36    12    25    1
    37    12    23    1
    38    31    14    1
    39    14    30    1
    40    14    29    1
