@<TRIPOS>MOLECULE
1,2
 20 21 0 0 0
SMALL
GASTEIGER

@<TRIPOS>ATOM
      1 N           1.6367    8.5299    5.5793 N.pl3   1  UNL1       -0.2427
      2 N           1.8143   10.4265    7.3123 N.pl3   1  UNL1       -0.2387
      3 C           1.5683    7.5908    4.6272 C.3     1  UNL1        0.0844
      4 C           0.8505    6.4237    4.7475 C.2     1  UNL1       -0.0600
      5 C           0.1190    6.2013    5.9247 C.2     1  UNL1       -0.0623
      6 C           0.1566    7.1574    6.9059 C.2     1  UNL1       -0.0408
      7 C           0.9287    8.3222    6.7304 C.2     1  UNL1        0.0578
      8 C           1.0075    9.3902    7.6845 C.3     1  UNL1        0.1419
      9 C           0.2754    9.4313    8.8883 C.2     1  UNL1       -0.0507
     10 C           0.3789   10.5187    9.7155 C.2     1  UNL1       -0.0620
     11 C           1.1825   11.5927    9.3087 C.2     1  UNL1       -0.0466
     12 C           1.8397   11.5053    8.1017 C.2     1  UNL1        0.0129
     13 H           2.1182    7.8110    3.7187 H       1  UNL1        0.0584
     14 H           0.8444    5.6993    3.9491 H       1  UNL1        0.0592
     15 H          -0.4609    5.2997    6.0493 H       1  UNL1        0.0616
     16 H          -0.4001    7.0149    7.8183 H       1  UNL1        0.0634
     17 H          -0.3624    8.6051    9.1593 H       1  UNL1        0.0598
     18 H          -0.1572   10.5573   10.6515 H       1  UNL1        0.0616
     19 H           1.2740   12.4763    9.9184 H       1  UNL1        0.0630
     20 H           2.4234   12.3402    7.7309 H       1  UNL1        0.0798
@<TRIPOS>BOND
     1    13     3    1
     2    14     4    1
     3     3     4    1
     4     3     1    1
     5     4     5    2
     6     1     7    1
     7     5    15    1
     8     5     6    1
     9     7     6    2
    10     7     8    1
    11     6    16    1
    12     2     8    1
    13     2    12    1
    14     8     9    1
    15    20    12    1
    16    12    11    2
    17     9    17    1
    18     9    10    2
    19    11    10    1
    20    11    19    1
    21    10    18    1
