@<TRIPOS>MOLECULE
2,3
 24 24 0 0 0
SMALL
GASTEIGER

@<TRIPOS>ATOM
      1 SI          6.6649   -2.3992   12.5222 Si      1  UNL1        0.0000
      2 N           6.3039   -0.7428   12.2604 N.3     1  UNL1        0.0000
      3 N           6.7581    0.2679   13.1336 N.3     1  UNL1        0.0000
      4 C           6.4012    0.0333   14.5341 C.3     1  UNL1        0.0000
      5 C           8.1963    0.5167   13.0895 C.3     1  UNL1        0.0000
      6 C           5.2822   -3.2936   13.4614 C.ar    1  UNL1        0.0000
      7 C           4.0885   -2.6476   13.7741 C.ar    1  UNL1        0.0000
      8 C           3.0728   -3.3067   14.4444 C.ar    1  UNL1        0.0000
      9 C           3.2323   -4.6323   14.8120 C.ar    1  UNL1        0.0000
     10 C           4.4108   -5.2922   14.5048 C.ar    1  UNL1        0.0000
     11 C           5.4221   -4.6252   13.8371 C.ar    1  UNL1        0.0000
     12 H           6.9110   -3.0572   11.2239 H       1  UNL1        0.0000
     13 H           7.9061   -2.5876   13.3110 H       1  UNL1        0.0000
     14 H           6.5942    0.9408   15.1076 H       1  UNL1        0.0000
     15 H           6.9951   -0.7903   14.9528 H       1  UNL1        0.0000
     16 H           5.3463   -0.2138   14.6221 H       1  UNL1        0.0000
     17 H           8.4070    1.4423   13.6282 H       1  UNL1        0.0000
     18 H           8.7572   -0.3027   13.5602 H       1  UNL1        0.0000
     19 H           8.5241    0.6197   12.0621 H       1  UNL1        0.0000
     20 H           3.9526   -1.6138   13.4767 H       1  UNL1        0.0000
     21 H           2.1555   -2.7854   14.6794 H       1  UNL1        0.0000
     22 H           2.4411   -5.1507   15.3348 H       1  UNL1        0.0000
     23 H           4.5392   -6.3279   14.7869 H       1  UNL1        0.0000
     24 H           6.3403   -5.1435   13.5983 H       1  UNL1        0.0000
@<TRIPOS>BOND
     1    12     1    1
     2    19     5    1
     3     2     1    1
     4     2     3    1
     5     1    13    1
     6     1     6    1
     7     5     3    1
     8     5    18    1
     9     5    17    1
    10     3     4    1
    11     6     7   ar
    12     6    11   ar
    13    20     7    1
    14    24    11    1
    15     7     8   ar
    16    11    10   ar
    17     8    21    1
    18     8     9   ar
    19    10    23    1
    20    10     9   ar
    21     4    16    1
    22     4    15    1
    23     4    14    1
    24     9    22    1
