@<TRIPOS>MOLECULE
1,2
 27 26 0 0 0
SMALL
GASTEIGER

@<TRIPOS>ATOM
      1 N           5.8471    2.4384   11.1995 N.3     1  UNL1       -0.2116
      2 N           7.2332    1.0689   10.1883 N.3     1  UNL1       -0.2116
      3 C           7.0201    2.3018   10.6010 C.3     1  UNL1        0.1330
      4 C           7.9894    3.4491   10.3976 C.3     1  UNL1       -0.0275
      5 C           5.3180    3.6570   11.7883 C.3     1  UNL1        0.0219
      6 C           5.9623    3.9638   13.1491 C.3     1  UNL1       -0.0483
      7 C           5.3227    4.8851   10.8629 C.3     1  UNL1       -0.0483
      8 C           8.4955    0.6998    9.5675 C.3     1  UNL1        0.0219
      9 C           8.5906    1.1448    8.0988 C.3     1  UNL1       -0.0483
     10 C           8.7307   -0.8081    9.6606 C.3     1  UNL1       -0.0483
     11 H           9.0070    3.0915   10.2663 H       1  UNL1        0.0262
     12 H           7.9758    4.1196   11.2497 H       1  UNL1        0.0262
     13 H           7.7104    4.0119    9.5081 H       1  UNL1        0.0262
     14 H           4.2642    3.4275   11.9952 H       1  UNL1        0.0472
     15 H           5.4672    4.8191   13.6029 H       1  UNL1        0.0245
     16 H           5.8350    3.0996   13.7995 H       1  UNL1        0.0245
     17 H           7.0245    4.1834   13.0629 H       1  UNL1        0.0245
     18 H           4.5298    5.5640   11.1693 H       1  UNL1        0.0245
     19 H           6.2597    5.4327   10.9005 H       1  UNL1        0.0245
     20 H           5.1347    4.5824    9.8345 H       1  UNL1        0.0245
     21 H           9.3370    1.1822   10.1013 H       1  UNL1        0.0472
     22 H           9.5883    0.9362    7.7179 H       1  UNL1        0.0245
     23 H           8.3999    2.2101    7.9970 H       1  UNL1        0.0245
     24 H           7.8735    0.6052    7.4863 H       1  UNL1        0.0245
     25 H           9.7146   -1.0474    9.2613 H       1  UNL1        0.0245
     26 H           8.6777   -1.1452   10.6921 H       1  UNL1        0.0245
     27 H           7.9816   -1.3451    9.0926 H       1  UNL1        0.0245
@<TRIPOS>BOND
     1    24     9    1
     2    22     9    1
     3    23     9    1
     4     9     8    1
     5    27    10    1
     6    25    10    1
     7    13     4    1
     8     8    10    1
     9     8    21    1
    10     8     2    1
    11    10    26    1
    12    20     7    1
    13     2     3    1
    14    11     4    1
    15     4     3    1
    16     4    12    1
    17     3     1    1
    18     7    19    1
    19     7    18    1
    20     7     5    1
    21     1     5    1
    22     5    14    1
    23     5     6    1
    24    17     6    1
    25     6    15    1
    26     6    16    1
