@<TRIPOS>MOLECULE
3,4
 66 67 0 0 0
SMALL
GASTEIGER

@<TRIPOS>ATOM
      1 SI          2.7231    1.0183    5.3561 Si      1  UNL1        0.0000
      2 SI          4.6566    4.6809    2.1537 Si      1  UNL1        0.0000
      3 N           3.8131    5.0225    6.1936 N.pl3   1  UNL1        0.0000
      4 N           5.9441    3.2692    5.9145 N.pl3   1  UNL1        0.0000
      5 C           3.6315    3.8254    5.3870 C.3     1  UNL1        0.0000
      6 H           2.9580    4.0179    4.5427 H       1  UNL1        0.0000
      7 C           5.0101    3.4379    4.8076 C.3     1  UNL1        0.0000
      8 H           4.8820    2.4990    4.2512 H       1  UNL1        0.0000
      9 C           3.0492    2.6788    6.2389 C.3     1  UNL1        0.0000
     10 H           2.0972    3.0264    6.6510 H       1  UNL1        0.0000
     11 H           3.7272    2.5238    7.0909 H       1  UNL1        0.0000
     12 C           5.5144    4.5321    3.8493 C.3     1  UNL1        0.0000
     13 H           6.5776    4.3501    3.6732 H       1  UNL1        0.0000
     14 H           5.4517    5.4871    4.3845 H       1  UNL1        0.0000
     15 C           2.7819    5.8880    6.3443 C.ar    1  UNL1        0.0000
     16 C           1.4503    5.6889    5.9188 C.ar    1  UNL1        0.0000
     17 H           1.1723    4.7858    5.3955 H       1  UNL1        0.0000
     18 C           0.4752    6.6333    6.1640 C.ar    1  UNL1        0.0000
     19 H          -0.5354    6.4402    5.8274 H       1  UNL1        0.0000
     20 C           0.7479    7.8179    6.8360 C.ar    1  UNL1        0.0000
     21 C           2.0638    8.0423    7.2360 C.ar    1  UNL1        0.0000
     22 H           2.3125    8.9684    7.7397 H       1  UNL1        0.0000
     23 C           3.0503    7.1162    6.9939 C.ar    1  UNL1        0.0000
     24 H           4.0826    7.3118    7.2851 H       1  UNL1        0.0000
     25 C          -0.3259    8.8354    7.0895 C.3     1  UNL1        0.0000
     26 H          -0.4029    9.5278    6.2490 H       1  UNL1        0.0000
     27 H          -0.1063    9.4180    7.9826 H       1  UNL1        0.0000
     28 H          -1.2943    8.3541    7.2148 H       1  UNL1        0.0000
     29 C           7.1079    2.6073    5.6779 C.ar    1  UNL1        0.0000
     30 C           8.0900    2.6065    6.6955 C.ar    1  UNL1        0.0000
     31 H           7.9006    3.2185    7.5777 H       1  UNL1        0.0000
     32 C           9.2651    1.9019    6.5787 C.ar    1  UNL1        0.0000
     33 H           9.9904    1.9369    7.3827 H       1  UNL1        0.0000
     34 C           9.5476    1.1519    5.4409 C.ar    1  UNL1        0.0000
     35 C           8.6073    1.1648    4.4189 C.ar    1  UNL1        0.0000
     36 H           8.8075    0.6073    3.5130 H       1  UNL1        0.0000
     37 C           7.4264    1.8701    4.5166 C.ar    1  UNL1        0.0000
     38 H           6.7448    1.8462    3.6806 H       1  UNL1        0.0000
     39 C          10.8378    0.3978    5.3043 C.3     1  UNL1        0.0000
     40 H          11.5921    1.0169    4.8150 H       1  UNL1        0.0000
     41 H          10.7005   -0.4989    4.7026 H       1  UNL1        0.0000
     42 H          11.2239    0.1087    6.2802 H       1  UNL1        0.0000
     43 C           1.6169    0.0005    6.5438 C.3     1  UNL1        0.0000
     44 H           2.1245   -0.2152    7.4796 H       1  UNL1        0.0000
     45 H           1.3430   -0.9499    6.0974 H       1  UNL1        0.0000
     46 H           0.6961    0.5231    6.7839 H       1  UNL1        0.0000
     47 C           1.7386    1.3250    3.7476 C.3     1  UNL1        0.0000
     48 H           0.8035    1.8394    3.9508 H       1  UNL1        0.0000
     49 H           1.4934    0.3901    3.2521 H       1  UNL1        0.0000
     50 H           2.2981    1.9335    3.0435 H       1  UNL1        0.0000
     51 C           4.2920   -0.0192    5.0085 C.3     1  UNL1        0.0000
     52 H           4.5062   -0.0722    3.9451 H       1  UNL1        0.0000
     53 H           4.1727   -1.0392    5.3621 H       1  UNL1        0.0000
     54 H           5.1731    0.3940    5.4906 H       1  UNL1        0.0000
     55 C           4.7031    2.9942    1.2483 C.3     1  UNL1        0.0000
     56 H           5.7265    2.6619    1.0997 H       1  UNL1        0.0000
     57 H           4.2375    3.0602    0.2693 H       1  UNL1        0.0000
     58 H           4.1865    2.2160    1.8027 H       1  UNL1        0.0000
     59 C           2.8554    5.3186    2.2317 C.3     1  UNL1        0.0000
     60 H           2.1373    4.5167    2.3770 H       1  UNL1        0.0000
     61 H           2.5872    5.8251    1.3088 H       1  UNL1        0.0000
     62 H           2.7238    6.0285    3.0435 H       1  UNL1        0.0000
     63 C           5.6756    5.9337    1.1326 C.3     1  UNL1        0.0000
     64 H           5.6690    6.9150    1.5968 H       1  UNL1        0.0000
     65 H           5.2768    6.0433    0.1290 H       1  UNL1        0.0000
     66 H           6.7119    5.6234    1.0410 H       1  UNL1        0.0000
@<TRIPOS>BOND
     1    65    63    1
     2    57    55    1
     3    66    63    1
     4    56    55    1
     5    63    64    1
     6    63     2    1
     7    55    58    1
     8    55     2    1
     9    61    59    1
    10     2    59    1
    11     2    12    1
    12    59    60    1
    13    59    62    1
    14    50    47    1
    15    49    47    1
    16    36    35    1
    17    13    12    1
    18    38    37    1
    19    47    48    1
    20    47     1    1
    21    12    14    1
    22    12     7    1
    23    52    51    1
    24     8     7    1
    25    35    37   ar
    26    35    34   ar
    27    37    29   ar
    28     6     5    1
    29    41    39    1
    30     7     5    1
    31     7     4    1
    32    40    39    1
    33    51     1    1
    34    51    53    1
    35    51    54    1
    36    39    34    1
    37    39    42    1
    38     1     9    1
    39     1    43    1
    40     5     3    1
    41     5     9    1
    42    17    16    1
    43    34    32   ar
    44    29     4    1
    45    29    30   ar
    46    19    18    1
    47    16    18   ar
    48    16    15   ar
    49    45    43    1
    50    18    20   ar
    51     3    15    1
    52     9    10    1
    53     9    11    1
    54    26    25    1
    55    15    23   ar
    56    43    46    1
    57    43    44    1
    58    32    30   ar
    59    32    33    1
    60    30    31    1
    61    20    25    1
    62    20    21   ar
    63    23    21   ar
    64    23    24    1
    65    25    28    1
    66    25    27    1
    67    21    22    1
