@<TRIPOS>MOLECULE
3,4
 51 52 0 0 0
SMALL
GASTEIGER

@<TRIPOS>ATOM
      1 O          10.9885    8.0956   -5.2690 O.3     1  UNL1       -0.3510
      2 O           8.5081    4.1850   -5.5428 O.3     1  UNL1       -0.3510
      3 N           9.8026    7.7355   -3.4023 N.3     1  UNL1       -0.1970
      4 N           7.8132    5.8270   -4.1681 N.3     1  UNL1       -0.1970
      5 C          10.3716    9.0761   -3.2415 C.3     1  UNL1        0.0567
      6 H           9.5803    9.7589   -2.9374 H       1  UNL1        0.0506
      7 C          11.4853    9.1121   -2.1589 C.3     1  UNL1       -0.0185
      8 C          12.5957    8.1064   -2.4699 C.3     1  UNL1       -0.0585
      9 H          12.2055    7.0946   -2.4060 H       1  UNL1        0.0235
     10 H          13.3984    8.2109   -1.7434 H       1  UNL1        0.0235
     11 H          13.0180    8.2569   -3.4607 H       1  UNL1        0.0235
     12 C          12.0672   10.5279   -2.0797 C.3     1  UNL1       -0.0585
     13 H          11.2719   11.2618   -1.9719 H       1  UNL1        0.0235
     14 H          12.6537   10.7846   -2.9585 H       1  UNL1        0.0235
     15 H          12.7187   10.6029   -1.2124 H       1  UNL1        0.0235
     16 C          10.8718    8.7626   -0.8054 C.3     1  UNL1       -0.0585
     17 H          10.3009    7.8453   -0.8930 H       1  UNL1        0.0235
     18 H          10.2071    9.5563   -0.4777 H       1  UNL1        0.0235
     19 H          11.6532    8.6363   -0.0597 H       1  UNL1        0.0235
     20 C          10.8988    9.3772   -4.6587 C.3     1  UNL1        0.0677
     21 H          10.1977    9.9891   -5.2380 H       1  UNL1        0.0577
     22 H          11.8822    9.8424   -4.6862 H       1  UNL1        0.0577
     23 C          10.2778    7.2523   -4.4865 C.3     1  UNL1        0.1896
     24 C          10.1796    5.8340   -4.9708 C.3     1  UNL1        0.0612
     25 C           8.7796    5.3165   -4.8387 C.3     1  UNL1        0.1896
     26 C           7.1527    3.8588   -5.2809 C.3     1  UNL1        0.0677
     27 H           7.1192    2.9260   -4.7100 H       1  UNL1        0.0577
     28 H           6.6509    3.7055   -6.2370 H       1  UNL1        0.0577
     29 C           6.6048    5.0554   -4.4713 C.3     1  UNL1        0.0567
     30 H           6.1618    4.7236   -3.5311 H       1  UNL1        0.0506
     31 C           5.5551    5.9075   -5.2327 C.3     1  UNL1       -0.0185
     32 C           4.4006    5.0192   -5.7118 C.3     1  UNL1       -0.0585
     33 H           4.0445    4.3852   -4.9030 H       1  UNL1        0.0235
     34 H           4.6883    4.3836   -6.5449 H       1  UNL1        0.0235
     35 H           3.5759    5.6455   -6.0445 H       1  UNL1        0.0235
     36 C           6.2032    6.6104   -6.4274 C.3     1  UNL1       -0.0585
     37 H           6.9548    7.3183   -6.0860 H       1  UNL1        0.0235
     38 H           5.4511    7.1519   -6.9967 H       1  UNL1        0.0235
     39 H           6.6830    5.8961   -7.0932 H       1  UNL1        0.0235
     40 C           4.9780    6.9474   -4.2691 C.3     1  UNL1       -0.0585
     41 H           5.7772    7.4424   -3.7068 H       1  UNL1        0.0235
     42 H           4.2994    6.4713   -3.5656 H       1  UNL1        0.0235
     43 H           4.4229    7.7051   -4.8175 H       1  UNL1        0.0235
     44 C          11.1160    4.9545   -4.1198 C.3     1  UNL1       -0.0516
     45 H          10.8334    5.0221   -3.0728 H       1  UNL1        0.0238
     46 H          12.1462    5.2814   -4.2389 H       1  UNL1        0.0238
     47 H          11.0328    3.9206   -4.4450 H       1  UNL1        0.0238
     48 C          10.6002    5.7495   -6.4447 C.3     1  UNL1       -0.0516
     49 H           9.9582    6.3738   -7.0614 H       1  UNL1        0.0238
     50 H          10.5226    4.7212   -6.7857 H       1  UNL1        0.0238
     51 H          11.6250    6.0907   -6.5588 H       1  UNL1        0.0238
@<TRIPOS>BOND
     1    39    36    1
     2    49    48    1
     3    38    36    1
     4    50    48    1
     5    51    48    1
     6    34    32    1
     7    48    24    1
     8    36    37    1
     9    36    31    1
    10    28    26    1
    11    35    32    1
    12    32    31    1
    13    32    33    1
    14     2    26    1
    15     2    25    1
    16    26    27    1
    17    26    29    1
    18     1    20    1
    19     1    23    1
    20    21    20    1
    21    31    29    1
    22    31    40    1
    23    24    25    1
    24    24    23    1
    25    24    44    1
    26    25     4    1
    27    43    40    1
    28    22    20    1
    29    20     5    1
    30    23     3    1
    31    29     4    1
    32    29    30    1
    33    47    44    1
    34    40    41    1
    35    40    42    1
    36    46    44    1
    37    44    45    1
    38    11     8    1
    39     3     5    1
    40     5     6    1
    41     5     7    1
    42    14    12    1
    43     8     9    1
    44     8     7    1
    45     8    10    1
    46     7    12    1
    47     7    16    1
    48    12    13    1
    49    12    15    1
    50    17    16    1
    51    16    18    1
    52    16    19    1
