@<TRIPOS>MOLECULE
1,2
 69 70 0 0 0
SMALL
GASTEIGER

@<TRIPOS>ATOM
      1 N           6.3299   16.7816    1.3170 N.pl3   1  UNL1       -0.2500
      2 N           9.0085   15.4252    2.2343 N.pl3   1  UNL1       -0.2500
      3 C           7.0222   16.7512    0.0327 C.3     1  UNL1        0.0329
      4 H           7.5086   17.7235   -0.1753 H       1  UNL1        0.0482
      5 H           6.2884   16.5976   -0.7792 H       1  UNL1        0.0482
      6 C           8.0797   15.6528   -0.0755 C.3     1  UNL1       -0.0180
      7 H           7.6124   14.6834    0.1344 H       1  UNL1        0.0297
      8 H           8.4450   15.6403   -1.1061 H       1  UNL1        0.0297
      9 C           9.2740   15.8601    0.8665 C.3     1  UNL1        0.0329
     10 H          10.1421   15.3191    0.4663 H       1  UNL1        0.0482
     11 H           9.5482   16.9343    0.8445 H       1  UNL1        0.0482
     12 C           5.4455   17.8907    1.3501 C.ar    1  UNL1        0.0546
     13 C           4.1201   17.7483    0.8984 C.ar    1  UNL1       -0.0220
     14 C           3.2661   18.8403    0.9214 C.ar    1  UNL1       -0.0565
     15 H           2.2499   18.7342    0.5709 H       1  UNL1        0.0621
     16 C           3.6926   20.0686    1.3871 C.ar    1  UNL1       -0.0611
     17 H           3.0143   20.9092    1.4052 H       1  UNL1        0.0618
     18 C           4.9933   20.2152    1.8285 C.ar    1  UNL1       -0.0565
     19 H           5.3206   21.1779    2.1936 H       1  UNL1        0.0621
     20 C           5.8821   19.1509    1.7991 C.ar    1  UNL1       -0.0220
     21 C           3.6199   16.4098    0.4016 C.3     1  UNL1       -0.0197
     22 H           4.4101   15.6738    0.6006 H       1  UNL1        0.0344
     23 C           2.3482   15.9760    1.1361 C.3     1  UNL1       -0.0586
     24 H           2.0622   14.9694    0.8324 H       1  UNL1        0.0235
     25 H           1.5194   16.6398    0.9023 H       1  UNL1        0.0235
     26 H           2.5004   15.9906    2.2129 H       1  UNL1        0.0235
     27 C           3.3534   16.4581   -1.1056 C.3     1  UNL1       -0.0586
     28 H           3.0501   15.4781   -1.4704 H       1  UNL1        0.0235
     29 H           4.2449   16.7676   -1.6463 H       1  UNL1        0.0235
     30 H           2.5600   17.1681   -1.3291 H       1  UNL1        0.0235
     31 C           7.3019   19.3471    2.2860 C.3     1  UNL1       -0.0197
     32 H           7.8773   18.4444    2.0394 H       1  UNL1        0.0344
     33 C           7.3138   19.5103    3.8096 C.3     1  UNL1       -0.0586
     34 H           8.3220   19.7264    4.1587 H       1  UNL1        0.0235
     35 H           6.9612   18.5900    4.2858 H       1  UNL1        0.0235
     36 H           6.6643   20.3297    4.1124 H       1  UNL1        0.0235
     37 C           7.9805   20.5380    1.6055 C.3     1  UNL1       -0.0586
     38 H           9.0365   20.5665    1.8680 H       1  UNL1        0.0235
     39 H           7.5299   21.4782    1.9137 H       1  UNL1        0.0235
     40 H           7.8958   20.4573    0.5239 H       1  UNL1        0.0235
     41 C          10.1632   14.9768    2.9061 C.ar    1  UNL1        0.0546
     42 C          10.7744   13.7477    2.5729 C.ar    1  UNL1       -0.0220
     43 C          11.9015   13.3320    3.2639 C.ar    1  UNL1       -0.0565
     44 H          12.3688   12.3927    3.0058 H       1  UNL1        0.0621
     45 C          12.4351   14.0864    4.2908 C.ar    1  UNL1       -0.0611
     46 H          13.3082   13.7410    4.8248 H       1  UNL1        0.0618
     47 C          11.8407   15.2871    4.6256 C.ar    1  UNL1       -0.0565
     48 H          12.2625   15.8784    5.4257 H       1  UNL1        0.0621
     49 C          10.7296   15.7524    3.9391 C.ar    1  UNL1       -0.0220
     50 C          10.1941   12.8393    1.5092 C.3     1  UNL1       -0.0197
     51 H           9.2579   13.2886    1.1617 H       1  UNL1        0.0344
     52 C           9.8713   11.4522    2.0752 C.3     1  UNL1       -0.0586
     53 H           9.3566   10.8516    1.3259 H       1  UNL1        0.0235
     54 H           9.2376   11.5342    2.9542 H       1  UNL1        0.0235
     55 H          10.7790   10.9271    2.3606 H       1  UNL1        0.0235
     56 C          11.1452   12.6942    0.3177 C.3     1  UNL1       -0.0586
     57 H          10.6867   12.0866   -0.4606 H       1  UNL1        0.0235
     58 H          12.0711   12.2145    0.6262 H       1  UNL1        0.0235
     59 H          11.3948   13.6644   -0.1063 H       1  UNL1        0.0235
     60 C          10.1568   17.1076    4.2941 C.3     1  UNL1       -0.0197
     61 H           9.3454   17.3313    3.5826 H       1  UNL1        0.0344
     62 C          11.2207   18.1999    4.1504 C.3     1  UNL1       -0.0586
     63 H          11.6613   18.1701    3.1561 H       1  UNL1        0.0235
     64 H          12.0161   18.0708    4.8800 H       1  UNL1        0.0235
     65 H          10.7785   19.1829    4.3036 H       1  UNL1        0.0235
     66 C           9.5628   17.1032    5.7057 C.3     1  UNL1       -0.0586
     67 H           9.2396   18.1048    5.9853 H       1  UNL1        0.0235
     68 H          10.3017   16.7710    6.4324 H       1  UNL1        0.0235
     69 H           8.7024   16.4334    5.7512 H       1  UNL1        0.0235
@<TRIPOS>BOND
     1    29    27    1
     2    28    27    1
     3    30    27    1
     4     8     6    1
     5    27    21    1
     6     5     3    1
     7    57    56    1
     8     4     3    1
     9    59    56    1
    10     6     3    1
    11     6     7    1
    12     6     9    1
    13     3     1    1
    14    56    58    1
    15    56    50    1
    16    21    22    1
    17    21    13    1
    18    21    23    1
    19    10     9    1
    20    40    37    1
    21    15    14    1
    22    24    23    1
    23    11     9    1
    24     9     2    1
    25    13    14   ar
    26    13    12   ar
    27    25    23    1
    28    14    16   ar
    29    23    26    1
    30    51    50    1
    31     1    12    1
    32    53    52    1
    33    12    20   ar
    34    16    17    1
    35    16    18   ar
    36    50    52    1
    37    50    42    1
    38    37    38    1
    39    37    39    1
    40    37    31    1
    41    20    18   ar
    42    20    31    1
    43    18    19    1
    44    32    31    1
    45    52    55    1
    46    52    54    1
    47     2    41    1
    48    31    33    1
    49    42    41   ar
    50    42    43   ar
    51    41    49   ar
    52    44    43    1
    53    63    62    1
    54    43    45   ar
    55    61    60    1
    56    33    36    1
    57    33    34    1
    58    33    35    1
    59    49    60    1
    60    49    47   ar
    61    62    60    1
    62    62    65    1
    63    62    64    1
    64    45    47   ar
    65    45    46    1
    66    60    66    1
    67    47    48    1
    68    66    69    1
    69    66    67    1
    70    66    68    1
