@<TRIPOS>MOLECULE
1
 61 61 0 0 0
SMALL
GASTEIGER

@<TRIPOS>ATOM
      1 N           1.2453    4.9545    4.7713 N.3     1  UNL1       -0.2333
      2 N          -1.1650    3.6679    5.8001 N.3     1  UNL1       -0.2987
      3 N          -1.4516    0.8770    4.7822 N.3     1  UNL1       -0.2975
      4 N          -2.0860    3.3404    3.0860 N.3     1  UNL1       -0.2975
      5 C           2.6673    5.5714    2.8778 C.3     1  UNL1       -0.0458
      6 C           2.1755    7.2735    4.6031 C.3     1  UNL1       -0.0458
      7 C           3.6852    5.3405    5.1335 C.3     1  UNL1       -0.0458
      8 C           2.4003    5.7612    4.3808 C.3     1  UNL1        0.0282
      9 C           0.7143    5.3433    6.0618 C.3     1  UNL1        0.0273
     10 C          -0.1987    4.2914    6.7125 C.3     1  UNL1        0.0131
     11 C          -1.9517    2.6609    6.5122 C.3     1  UNL1        0.0118
     12 C          -1.5450    1.2151    6.2052 C.3     1  UNL1        0.0120
     13 C          -0.9131   -0.4907    4.6300 C.3     1  UNL1        0.0049
     14 C          -1.7930   -1.6125    5.2060 C.3     1  UNL1       -0.0497
     15 C          -0.5834   -0.7918    3.1702 C.3     1  UNL1       -0.0497
     16 C          -2.7154    1.0763    4.0717 C.3     1  UNL1        0.0120
     17 C          -2.6308    2.0062    2.8493 C.3     1  UNL1        0.0120
     18 C          -1.8578    4.0454    1.8119 C.3     1  UNL1        0.0049
     19 C          -3.1191    4.3044    0.9707 C.3     1  UNL1       -0.0497
     20 C          -1.1115    5.3577    2.0462 C.3     1  UNL1       -0.0497
     21 C          -2.8796    4.1188    4.0360 C.3     1  UNL1        0.0120
     22 C          -2.0273    4.6742    5.1858 C.3     1  UNL1        0.0118
     23 H           2.8384    4.5196    2.6513 H       1  UNL1        0.0248
     24 H           3.5506    6.1368    2.5859 H       1  UNL1        0.0248
     25 H           1.8242    5.9324    2.2932 H       1  UNL1        0.0248
     26 H           1.2395    7.5833    4.1430 H       1  UNL1        0.0248
     27 H           2.9870    7.8345    4.1456 H       1  UNL1        0.0248
     28 H           2.1472    7.5259    5.6595 H       1  UNL1        0.0248
     29 H           3.6099    5.5684    6.1937 H       1  UNL1        0.0248
     30 H           4.5491    5.8694    4.7366 H       1  UNL1        0.0248
     31 H           3.8389    4.2667    5.0195 H       1  UNL1        0.0248
     32 H           0.1415    6.2897    5.9831 H       1  UNL1        0.0454
     33 H           1.5098    5.5414    6.8049 H       1  UNL1        0.0454
     34 H           0.4234    3.4878    7.1204 H       1  UNL1        0.0440
     35 H          -0.7273    4.7804    7.5520 H       1  UNL1        0.0440
     36 H          -3.0096    2.7989    6.2812 H       1  UNL1        0.0439
     37 H          -1.8597    2.7918    7.6003 H       1  UNL1        0.0439
     38 H          -0.5595    1.0301    6.6362 H       1  UNL1        0.0439
     39 H          -2.2772    0.5745    6.7258 H       1  UNL1        0.0439
     40 H           0.0282   -0.4990    5.1907 H       1  UNL1        0.0457
     41 H          -2.7755   -1.6428    4.7405 H       1  UNL1        0.0245
     42 H          -1.9219   -1.5090    6.2800 H       1  UNL1        0.0245
     43 H          -1.3075   -2.5671    5.0215 H       1  UNL1        0.0245
     44 H          -1.4827   -0.9110    2.5702 H       1  UNL1        0.0245
     45 H          -0.0176   -1.7184    3.1125 H       1  UNL1        0.0245
     46 H           0.0255    0.0078    2.7541 H       1  UNL1        0.0245
     47 H          -3.4760    1.4460    4.7631 H       1  UNL1        0.0439
     48 H          -3.0985    0.1257    3.6869 H       1  UNL1        0.0439
     49 H          -1.9929    1.5312    2.1009 H       1  UNL1        0.0439
     50 H          -3.6566    2.0557    2.4415 H       1  UNL1        0.0439
     51 H          -1.2047    3.3926    1.2245 H       1  UNL1        0.0457
     52 H          -3.5845    3.3751    0.6522 H       1  UNL1        0.0245
     53 H          -2.8388    4.8594    0.0795 H       1  UNL1        0.0245
     54 H          -3.8567    4.8924    1.5126 H       1  UNL1        0.0245
     55 H          -0.6985    5.7109    1.1038 H       1  UNL1        0.0245
     56 H          -0.2964    5.1964    2.7535 H       1  UNL1        0.0245
     57 H          -1.7738    6.1310    2.4298 H       1  UNL1        0.0245
     58 H          -3.6928    3.5047    4.4301 H       1  UNL1        0.0439
     59 H          -3.3577    4.9764    3.5512 H       1  UNL1        0.0439
     60 H          -1.3781    5.4468    4.7827 H       1  UNL1        0.0439
     61 H          -2.6988    5.1346    5.9324 H       1  UNL1        0.0439
@<TRIPOS>BOND
     1    53    19    1
     2    52    19    1
     3    19    54    1
     4    19    18    1
     5    55    20    1
     6    51    18    1
     7    18    20    1
     8    18     4    1
     9    20    57    1
    10    20    56    1
    11    49    17    1
    12    25     5    1
    13    50    17    1
    14    44    15    1
    15    24     5    1
    16    23     5    1
    17    46    15    1
    18    17     4    1
    19    17    16    1
    20     5     8    1
    21     4    21    1
    22    45    15    1
    23    15    13    1
    24    59    21    1
    25    48    16    1
    26    21    58    1
    27    21    22    1
    28    16    47    1
    29    16     3    1
    30    26     6    1
    31    27     6    1
    32     8     6    1
    33     8     1    1
    34     8     7    1
    35     6    28    1
    36    13     3    1
    37    13    40    1
    38    13    14    1
    39    30     7    1
    40    41    14    1
    41     1     9    1
    42     3    12    1
    43    60    22    1
    44    31     7    1
    45    43    14    1
    46     7    29    1
    47    22     2    1
    48    22    61    1
    49    14    42    1
    50     2    11    1
    51     2    10    1
    52    32     9    1
    53     9    10    1
    54     9    33    1
    55    12    11    1
    56    12    38    1
    57    12    39    1
    58    36    11    1
    59    11    37    1
    60    10    34    1
    61    10    35    1
