@<TRIPOS>MOLECULE
4,6
 50 49 0 0 0
SMALL
GASTEIGER

@<TRIPOS>ATOM
      1 C           2.1935   -2.0503    9.3231 C.3     1  UNL1        0.0000
      2 C           0.0580   -1.5294    8.1148 C.3     1  UNL1        0.0000
      3 C           0.6759   -1.8923    9.4677 C.3     1  UNL1        0.0000
      4 N           0.4324   -0.8333   10.4299 N.3     1  UNL1        0.0000
      5 C          -0.3918   -0.9548   11.4638 C.3     1  UNL1        0.0000
      6 N          -0.2691    0.0452   12.3235 N.3     1  UNL1        0.0000
      7 C          -1.2386    0.3120   13.3757 C.3     1  UNL1        0.0000
      8 C          -0.4940    0.5248   14.6963 C.3     1  UNL1        0.0000
      9 C          -2.0260    1.5751   13.0094 C.3     1  UNL1        0.0000
     10 N          -1.2565   -2.0299   11.6370 N.3     1  UNL1        0.0000
     11 SI         -0.7820   -3.2343   12.8281 Si      1  UNL1        0.0000
     12 SI         -2.7582   -2.0248   10.7078 Si      1  UNL1        0.0000
     13 C          -1.7271   -3.1109   14.4842 C.3     1  UNL1        0.0000
     14 C          -1.1080   -4.9584   12.0875 C.3     1  UNL1        0.0000
     15 C           1.0773   -3.0728   13.1988 C.3     1  UNL1        0.0000
     16 C          -4.2022   -2.3070   11.9215 C.3     1  UNL1        0.0000
     17 C          -3.0245   -0.3621    9.8262 C.3     1  UNL1        0.0000
     18 C          -2.7875   -3.4578    9.4415 C.3     1  UNL1        0.0000
     19 H          -1.9296   -0.5364   13.4647 H       1  UNL1        0.0000
     20 H           0.2331   -2.8293    9.8368 H       1  UNL1        0.0000
     21 H          -1.5814   -4.0256   15.0512 H       1  UNL1        0.0000
     22 H          -1.3809   -2.2892   15.1030 H       1  UNL1        0.0000
     23 H          -2.7950   -2.9865   14.3420 H       1  UNL1        0.0000
     24 H          -5.1425   -2.2649   11.3815 H       1  UNL1        0.0000
     25 H          -4.2421   -1.5537   12.7024 H       1  UNL1        0.0000
     26 H          -4.1462   -3.2806   12.3967 H       1  UNL1        0.0000
     27 H          -0.6664   -5.7182   12.7238 H       1  UNL1        0.0000
     28 H          -2.1698   -5.1676   12.0258 H       1  UNL1        0.0000
     29 H          -0.6885   -5.0775   11.0944 H       1  UNL1        0.0000
     30 H           1.4068   -3.8700   13.8581 H       1  UNL1        0.0000
     31 H           1.2993   -2.1303   13.6879 H       1  UNL1        0.0000
     32 H           1.6752   -3.1283   12.2946 H       1  UNL1        0.0000
     33 H          -1.2014    0.7222   15.4978 H       1  UNL1        0.0000
     34 H           0.0930   -0.3545   14.9538 H       1  UNL1        0.0000
     35 H           0.1744    1.3797   14.5999 H       1  UNL1        0.0000
     36 H          -3.3913   -0.5070    8.8141 H       1  UNL1        0.0000
     37 H          -3.7643    0.2417   10.3443 H       1  UNL1        0.0000
     38 H          -2.1141    0.2270    9.7620 H       1  UNL1        0.0000
     39 H          -3.5498   -3.2674    8.6920 H       1  UNL1        0.0000
     40 H          -3.0395   -4.3990    9.9177 H       1  UNL1        0.0000
     41 H          -1.8463   -3.5961    8.9207 H       1  UNL1        0.0000
     42 H          -2.7356    1.8172   13.7972 H       1  UNL1        0.0000
     43 H          -1.3385    2.4132   12.8852 H       1  UNL1        0.0000
     44 H          -2.5672    1.4303   12.0775 H       1  UNL1        0.0000
     45 H           2.4297   -2.7189    8.4986 H       1  UNL1        0.0000
     46 H           2.6289   -2.4577   10.2337 H       1  UNL1        0.0000
     47 H           2.6356   -1.0700    9.1343 H       1  UNL1        0.0000
     48 H           0.2651   -2.3087    7.3847 H       1  UNL1        0.0000
     49 H          -1.0167   -1.4067    8.2066 H       1  UNL1        0.0000
     50 H           0.4843   -0.5924    7.7649 H       1  UNL1        0.0000
@<TRIPOS>BOND
     1    48     2    1
     2    50     2    1
     3     2    49    1
     4     2     3    1
     5    45     1    1
     6    39    18    1
     7    36    17    1
     8    41    18    1
     9    47     1    1
    10     1     3    1
    11     1    46    1
    12    18    40    1
    13    18    12    1
    14     3    20    1
    15     3     4    1
    16    38    17    1
    17    17    37    1
    18    17    12    1
    19     4     5    1
    20    12    10    1
    21    12    16    1
    22    29    14    1
    23    24    16    1
    24     5    10    1
    25     5     6    1
    26    10    11    1
    27    16    26    1
    28    16    25    1
    29    28    14    1
    30    44     9    1
    31    14    27    1
    32    14    11    1
    33    32    15    1
    34     6     7    1
    35    11    15    1
    36    11    13    1
    37    43     9    1
    38     9     7    1
    39     9    42    1
    40    15    31    1
    41    15    30    1
    42     7    19    1
    43     7     8    1
    44    23    13    1
    45    13    21    1
    46    13    22    1
    47    35     8    1
    48     8    34    1
    49     8    33    1
