@<TRIPOS>MOLECULE
1,2
 20 21 0 0 0
SMALL
GASTEIGER

@<TRIPOS>ATOM
      1 N           3.1473   10.2985    6.2185 N.pl3   1  UNL1       -0.2427
      2 N           2.5716   10.5411    3.7289 N.pl3   1  UNL1       -0.2387
      3 C           3.4995   10.0662    7.4774 C.3     1  UNL1        0.0844
      4 C           3.8893   11.0570    8.3593 C.2     1  UNL1       -0.0600
      5 C           3.9098   12.3799    7.9091 C.2     1  UNL1       -0.0623
      6 C           3.5882   12.6352    6.5985 C.2     1  UNL1       -0.0408
      7 C           3.2261   11.5707    5.7511 C.2     1  UNL1        0.0578
      8 C           2.9894   11.6971    4.3369 C.3     1  UNL1        0.1419
      9 C           3.2777   12.8529    3.6012 C.2     1  UNL1       -0.0507
     10 C           3.1558   12.8493    2.2304 C.2     1  UNL1       -0.0620
     11 C           2.7723   11.6509    1.6103 C.2     1  UNL1       -0.0466
     12 C           2.4925   10.5500    2.3794 C.2     1  UNL1        0.0129
     13 H           3.4710    9.0289    7.7851 H       1  UNL1        0.0584
     14 H           4.1646   10.8125    9.3726 H       1  UNL1        0.0592
     15 H           4.1833   13.1837    8.5766 H       1  UNL1        0.0616
     16 H           3.6082   13.6457    6.2225 H       1  UNL1        0.0634
     17 H           3.6097   13.7444    4.1102 H       1  UNL1        0.0598
     18 H           3.3659   13.7333    1.6489 H       1  UNL1        0.0616
     19 H           2.6813   11.5982    0.5361 H       1  UNL1        0.0630
     20 H           2.1940    9.6124    1.9296 H       1  UNL1        0.0798
@<TRIPOS>BOND
     1    19    11    1
     2    11    10    1
     3    11    12    2
     4    18    10    1
     5    20    12    1
     6    10     9    2
     7    12     2    1
     8     9    17    1
     9     9     8    1
    10     2     8    1
    11     8     7    1
    12     7     1    1
    13     7     6    2
    14     1     3    1
    15    16     6    1
    16     6     5    1
    17     3    13    1
    18     3     4    1
    19     5     4    2
    20     5    15    1
    21     4    14    1
