@<TRIPOS>MOLECULE
1,45
 89 88 0 0 0
SMALL
GASTEIGER

@<TRIPOS>ATOM
      1 N           2.7730    2.8054   -1.8718 N.3     1  UNL1        0.0000
      2 H           1.8131    3.0659   -1.6398 H       1  UNL1        0.0000
      3 C           3.5379    2.7744   -0.8538 C.3     1  UNL1        0.0000
      4 C           3.0478    3.0319    0.5654 C.3     1  UNL1        0.0000
      5 C           1.5667    3.4295    0.5890 C.3     1  UNL1        0.0000
      6 H           0.9352    2.6311    0.2018 H       1  UNL1        0.0000
      7 H           1.3956    4.3395    0.0171 H       1  UNL1        0.0000
      8 H           1.2623    3.6187    1.6160 H       1  UNL1        0.0000
      9 C           3.2125    1.7294    1.3622 C.3     1  UNL1        0.0000
     10 H           4.2556    1.4381    1.4402 H       1  UNL1        0.0000
     11 H           2.6700    0.9227    0.8746 H       1  UNL1        0.0000
     12 H           2.8178    1.8605    2.3674 H       1  UNL1        0.0000
     13 C           3.8628    4.1571    1.2163 C.3     1  UNL1        0.0000
     14 H           4.9043    3.8793    1.3418 H       1  UNL1        0.0000
     15 H           3.4544    4.3797    2.1995 H       1  UNL1        0.0000
     16 H           3.8206    5.0581    0.6097 H       1  UNL1        0.0000
     17 C           5.0048    2.5171   -1.0642 C.3     1  UNL1        0.0000
     18 H           5.5072    2.3830   -0.1041 H       1  UNL1        0.0000
     19 C           5.5527    3.7374   -1.7590 C.2     1  UNL1        0.0000
     20 H           5.1785    3.8792   -2.7655 H       1  UNL1        0.0000
     21 C           6.4206    4.5958   -1.2440 C.2     1  UNL1        0.0000
     22 H           6.7771    4.4246   -0.2343 H       1  UNL1        0.0000
     23 SI          7.0790    6.1167   -2.1606 Si      1  UNL1        0.0000
     24 C           8.9769    5.8499   -2.4401 C.3     1  UNL1        0.0000
     25 C           9.7269    5.8709   -1.1069 C.3     1  UNL1        0.0000
     26 H           9.6196    6.8358   -0.6177 H       1  UNL1        0.0000
     27 H          10.7897    5.6884   -1.2654 H       1  UNL1        0.0000
     28 H           9.3493    5.1017   -0.4370 H       1  UNL1        0.0000
     29 C           9.2149    4.4954   -3.1094 C.3     1  UNL1        0.0000
     30 H           8.6987    4.4397   -4.0649 H       1  UNL1        0.0000
     31 H           8.8503    3.6897   -2.4754 H       1  UNL1        0.0000
     32 H          10.2781    4.3347   -3.2871 H       1  UNL1        0.0000
     33 C           9.5494    6.9479   -3.3371 C.3     1  UNL1        0.0000
     34 H           9.3933    7.9297   -2.8961 H       1  UNL1        0.0000
     35 H           9.0776    6.9325   -4.3163 H       1  UNL1        0.0000
     36 H          10.6213    6.8062   -3.4759 H       1  UNL1        0.0000
     37 C           6.7790    7.6332   -1.0396 C.3     1  UNL1        0.0000
     38 H           7.2054    7.4964   -0.0511 H       1  UNL1        0.0000
     39 H           5.7155    7.8089   -0.9145 H       1  UNL1        0.0000
     40 H           7.2104    8.5339   -1.4642 H       1  UNL1        0.0000
     41 C           6.1692    6.3468   -3.8131 C.3     1  UNL1        0.0000
     42 H           6.2572    5.4720   -4.4490 H       1  UNL1        0.0000
     43 H           6.5541    7.1983   -4.3655 H       1  UNL1        0.0000
     44 H           5.1092    6.5152   -3.6538 H       1  UNL1        0.0000
     45 N           2.9936   -0.1228   -3.2379 N.pl3   1  UNL1        0.0000
     46 H           2.3301   -0.8187   -3.5758 H       1  UNL1        0.0000
     47 C           3.5000   -0.5532   -2.0411 C.2     1  UNL1        0.0000
     48 C           2.8731   -1.8336   -1.4602 C.3     1  UNL1        0.0000
     49 C           3.4310   -2.2316   -0.0906 C.3     1  UNL1        0.0000
     50 H           4.4930   -2.4546   -0.1425 H       1  UNL1        0.0000
     51 H           2.9194   -3.1269    0.2593 H       1  UNL1        0.0000
     52 H           3.2724   -1.4454    0.6431 H       1  UNL1        0.0000
     53 C           1.3587   -1.6349   -1.2934 C.3     1  UNL1        0.0000
     54 H           0.8703   -1.4260   -2.2414 H       1  UNL1        0.0000
     55 H           1.1623   -0.8032   -0.6187 H       1  UNL1        0.0000
     56 H           0.9074   -2.5322   -0.8733 H       1  UNL1        0.0000
     57 C           3.1371   -2.9977   -2.4284 C.3     1  UNL1        0.0000
     58 H           4.2074   -3.1337   -2.5655 H       1  UNL1        0.0000
     59 H           2.6925   -2.8200   -3.4056 H       1  UNL1        0.0000
     60 H           2.7163   -3.9196   -2.0309 H       1  UNL1        0.0000
     61 C           4.5301    0.0602   -1.4127 C.2     1  UNL1        0.0000
     62 H           4.8896   -0.3077   -0.4679 H       1  UNL1        0.0000
     63 C           5.2722    1.2522   -1.9321 C.3     1  UNL1        0.0000
     64 H           4.9334    1.4747   -2.9542 H       1  UNL1        0.0000
     65 C           6.7800    0.9947   -1.9800 C.3     1  UNL1        0.0000
     66 H           7.2678    1.8890   -2.3715 H       1  UNL1        0.0000
     67 H           7.1457    0.8620   -0.9594 H       1  UNL1        0.0000
     68 SI          7.2713   -0.5473   -3.0070 Si      1  UNL1        0.0000
     69 C           9.0989   -0.3108   -3.6114 C.3     1  UNL1        0.0000
     70 C           9.1987    0.8045   -4.6531 C.3     1  UNL1        0.0000
     71 H           8.8171    1.7429   -4.2591 H       1  UNL1        0.0000
     72 H           8.6388    0.5478   -5.5491 H       1  UNL1        0.0000
     73 H          10.2374    0.9612   -4.9436 H       1  UNL1        0.0000
     74 C          10.0044    0.0494   -2.4326 C.3     1  UNL1        0.0000
     75 H           9.6982    0.9898   -1.9816 H       1  UNL1        0.0000
     76 H          11.0373    0.1540   -2.7641 H       1  UNL1        0.0000
     77 H           9.9726   -0.7242   -1.6695 H       1  UNL1        0.0000
     78 C           9.6164   -1.6037   -4.2427 C.3     1  UNL1        0.0000
     79 H           8.9853   -1.9085   -5.0740 H       1  UNL1        0.0000
     80 H           9.6352   -2.4091   -3.5136 H       1  UNL1        0.0000
     81 H          10.6299   -1.4653   -4.6190 H       1  UNL1        0.0000
     82 C           6.1361   -0.8441   -4.5128 C.3     1  UNL1        0.0000
     83 H           6.4045   -0.2182   -5.3581 H       1  UNL1        0.0000
     84 H           5.0991   -0.6389   -4.2544 H       1  UNL1        0.0000
     85 H           6.1982   -1.8770   -4.8435 H       1  UNL1        0.0000
     86 C           7.2028   -2.1035   -1.9006 C.3     1  UNL1        0.0000
     87 H           7.8559   -2.0133   -1.0382 H       1  UNL1        0.0000
     88 H           7.4971   -2.9955   -2.4446 H       1  UNL1        0.0000
     89 H           6.1952   -2.2599   -1.5336 H       1  UNL1        0.0000
@<TRIPOS>BOND
     1    72    70    1
     2    83    82    1
     3    79    78    1
     4    73    70    1
     5    85    82    1
     6    70    71    1
     7    70    69    1
     8    81    78    1
     9    82    84    1
    10    82    68    1
    11    42    41    1
    12    43    41    1
    13    35    33    1
    14    78    69    1
    15    78    80    1
    16    30    29    1
    17    41    44    1
    18    41    23    1
    19    69    68    1
    20    69    74    1
    21    46    45    1
    22    36    33    1
    23    59    57    1
    24    33    34    1
    25    33    24    1
    26    32    29    1
    27    45    47    1
    28    29    31    1
    29    29    24    1
    30    68    65    1
    31    68    86    1
    32    64    63    1
    33    20    19    1
    34    76    74    1
    35    58    57    1
    36    88    86    1
    37    24    23    1
    38    24    25    1
    39    74    75    1
    40    74    77    1
    41    57    60    1
    42    57    48    1
    43    66    65    1
    44    54    53    1
    45    23    21    1
    46    23    37    1
    47    47    48    1
    48    47    61    2
    49    65    63    1
    50    65    67    1
    51    63    61    1
    52    63    17    1
    53    86    89    1
    54    86    87    1
    55     1     2    1
    56     1     3    1
    57    19    21    2
    58    19    17    1
    59    40    37    1
    60    48    53    1
    61    48    49    1
    62    61    62    1
    63    53    56    1
    64    53    55    1
    65    27    25    1
    66    21    22    1
    67    25    26    1
    68    25    28    1
    69    17     3    1
    70    17    18    1
    71    37    39    1
    72    37    38    1
    73     3     4    1
    74    50    49    1
    75    49    51    1
    76    49    52    1
    77     7     5    1
    78     6     5    1
    79     4     5    1
    80     4    13    1
    81     4     9    1
    82     5     8    1
    83    16    13    1
    84    11     9    1
    85    13    14    1
    86    13    15    1
    87     9    10    1
    88     9    12    1
