@<TRIPOS>MOLECULE
1,4
 32 33 0 0 0
SMALL
GASTEIGER

@<TRIPOS>ATOM
      1 N           5.8364    2.1312   21.8373 N.3     1  UNL1       -0.3221
      2 H           5.4227    1.4799   22.5109 H       1  UNL1        0.1188
      3 H           6.6003    1.6484   21.3606 H       1  UNL1        0.1188
      4 N           4.3581    4.4903   21.7667 N.3     1  UNL1       -0.3221
      5 H           4.8520    5.1680   21.1779 H       1  UNL1        0.1188
      6 H           3.4641    4.9027   22.0394 H       1  UNL1        0.1188
      7 C           6.3538    3.3091   22.5386 C.3     1  UNL1        0.0499
      8 H           6.9646    3.8781   21.8250 H       1  UNL1        0.0527
      9 C           5.1530    4.1929   22.9608 C.3     1  UNL1        0.0499
     10 H           4.5194    3.6090   23.6418 H       1  UNL1        0.0527
     11 C           7.1762    2.9695   23.7594 C.ar    1  UNL1       -0.0289
     12 C           8.3997    3.5897   23.9715 C.ar    1  UNL1       -0.0570
     13 H           8.7757    4.2902   23.2398 H       1  UNL1        0.0621
     14 C           9.1332    3.3228   25.1134 C.ar    1  UNL1       -0.0615
     15 H          10.0821    3.8143   25.2686 H       1  UNL1        0.0618
     16 C           8.6514    2.4297   26.0547 C.ar    1  UNL1       -0.0617
     17 H           9.2232    2.2210   26.9465 H       1  UNL1        0.0618
     18 C           7.4319    1.8073   25.8506 C.ar    1  UNL1       -0.0615
     19 H           7.0490    1.1125   26.5835 H       1  UNL1        0.0618
     20 C           6.6957    2.0781   24.7116 C.ar    1  UNL1       -0.0570
     21 H           5.7360    1.5974   24.5775 H       1  UNL1        0.0621
     22 C           5.6642    5.4249   23.6697 C.ar    1  UNL1       -0.0289
     23 C           6.3034    6.4369   22.9631 C.ar    1  UNL1       -0.0570
     24 H           6.4208    6.3666   21.8901 H       1  UNL1        0.0621
     25 C           6.8109    7.5396   23.6259 C.ar    1  UNL1       -0.0615
     26 H           7.3051    8.3203   23.0666 H       1  UNL1        0.0618
     27 C           6.6930    7.6395   25.0016 C.ar    1  UNL1       -0.0617
     28 H           7.0934    8.4988   25.5182 H       1  UNL1        0.0618
     29 C           6.0626    6.6327   25.7122 C.ar    1  UNL1       -0.0615
     30 H           5.9700    6.7032   26.7856 H       1  UNL1        0.0618
     31 C           5.5498    5.5325   25.0490 C.ar    1  UNL1       -0.0570
     32 H           5.0611    4.7460   25.6057 H       1  UNL1        0.0621
@<TRIPOS>BOND
     1     5     4    1
     2     3     1    1
     3     4     6    1
     4     4     9    1
     5     8     7    1
     6     1     2    1
     7     1     7    1
     8    24    23    1
     9     7     9    1
    10     7    11    1
    11     9    10    1
    12     9    22    1
    13    23    25   ar
    14    23    22   ar
    15    26    25    1
    16    13    12    1
    17    25    27   ar
    18    22    31   ar
    19    11    12   ar
    20    11    20   ar
    21    12    14   ar
    22    21    20    1
    23    20    18   ar
    24    27    28    1
    25    27    29   ar
    26    31    32    1
    27    31    29   ar
    28    14    15    1
    29    14    16   ar
    30    29    30    1
    31    18    16   ar
    32    18    19    1
    33    16    17    1
