@<TRIPOS>MOLECULE
3,4
 38 38 0 0 0
SMALL
GASTEIGER

@<TRIPOS>ATOM
      1 SI         12.0209    1.1897    6.9954 Si      1  UNL1        0.0000
      2 SI          9.1685    3.0671    2.8422 Si      1  UNL1        0.0000
      3 N          11.3354    0.6205    5.5129 N.pl3   1  UNL1        0.0000
      4 N           9.9406    1.6835    3.5487 N.pl3   1  UNL1        0.0000
      5 C          11.8985    0.5429    4.2659 C.ar    1  UNL1        0.0000
      6 C          11.1358    1.1176    3.1932 C.ar    1  UNL1        0.0000
      7 C          11.6664    1.0948    1.9012 C.ar    1  UNL1        0.0000
      8 C          12.8953    0.5180    1.6541 C.ar    1  UNL1        0.0000
      9 C          13.6284   -0.0468    2.6912 C.ar    1  UNL1        0.0000
     10 C          13.1387   -0.0325    3.9814 C.ar    1  UNL1        0.0000
     11 C          13.8209    0.6568    7.3609 C.3     1  UNL1        0.0000
     12 C          11.9420    3.1063    6.9111 C.3     1  UNL1        0.0000
     13 C          10.8297    0.4983    8.3178 C.3     1  UNL1        0.0000
     14 C           8.3639    2.7312    1.1354 C.3     1  UNL1        0.0000
     15 C          10.4463    4.4836    2.6890 C.3     1  UNL1        0.0000
     16 C           7.8120    3.4590    4.1267 C.3     1  UNL1        0.0000
     17 H          11.1005    1.5487    1.1005 H       1  UNL1        0.0000
     18 H          13.2909    0.5108    0.6493 H       1  UNL1        0.0000
     19 H          14.5906   -0.4932    2.4880 H       1  UNL1        0.0000
     20 H          13.7100   -0.4569    4.7932 H       1  UNL1        0.0000
     21 H          13.9309   -0.4236    7.3698 H       1  UNL1        0.0000
     22 H          14.1275    1.0229    8.3358 H       1  UNL1        0.0000
     23 H          14.5151    1.0587    6.6289 H       1  UNL1        0.0000
     24 H          12.6250    3.4963    6.1603 H       1  UNL1        0.0000
     25 H          12.1991    3.5665    7.8597 H       1  UNL1        0.0000
     26 H          10.9371    3.4295    6.6421 H       1  UNL1        0.0000
     27 H           9.8728    0.2374    7.8597 H       1  UNL1        0.0000
     28 H          10.6426    1.2252    9.1007 H       1  UNL1        0.0000
     29 H          11.2243   -0.3928    8.7958 H       1  UNL1        0.0000
     30 H           9.0958    2.7001    0.3330 H       1  UNL1        0.0000
     31 H           7.6539    3.5150    0.8903 H       1  UNL1        0.0000
     32 H           7.8266    1.7869    1.1321 H       1  UNL1        0.0000
     33 H          10.8848    4.7261    3.6532 H       1  UNL1        0.0000
     34 H           9.9857    5.3852    2.2985 H       1  UNL1        0.0000
     35 H          11.2587    4.2112    2.0213 H       1  UNL1        0.0000
     36 H           7.4389    2.5341    4.5716 H       1  UNL1        0.0000
     37 H           6.9721    3.9805    3.6810 H       1  UNL1        0.0000
     38 H           8.1913    4.0829    4.9309 H       1  UNL1        0.0000
@<TRIPOS>BOND
     1    30    14    1
     2    18     8    1
     3    31    14    1
     4    17     7    1
     5    32    14    1
     6    14     2    1
     7     8     7   ar
     8     8     9   ar
     9     7     6   ar
    10    35    15    1
    11    34    15    1
    12    19     9    1
    13    15     2    1
    14    15    33    1
    15     9    10   ar
    16     2     4    1
    17     2    16    1
    18     6     4    1
    19     6     5   ar
    20    37    16    1
    21    10     5   ar
    22    10    20    1
    23    16    36    1
    24    16    38    1
    25     5     3    1
    26     3     1    1
    27    24    12    1
    28    23    11    1
    29    26    12    1
    30    12     1    1
    31    12    25    1
    32     1    11    1
    33     1    13    1
    34    11    21    1
    35    11    22    1
    36    27    13    1
    37    13    29    1
    38    13    28    1
