@<TRIPOS>MOLECULE
2,20
 37 36 0 0 0
SMALL
GASTEIGER

@<TRIPOS>ATOM
      1 SI          2.9126    2.9126    0.0000 Si      1  UNL1        0.0000
      2 N           4.0316    3.5905    1.1638 N.3     1  UNL1        0.0000
      3 C           4.6333    3.0938    2.3676 C.3     1  UNL1        0.0000
      4 C           5.4128    4.2689    2.9940 C.3     1  UNL1        0.0000
      5 C           3.5628    2.5971    3.3484 C.3     1  UNL1        0.0000
      6 C           5.6156    1.9563    2.0307 C.3     1  UNL1        0.0000
      7 C           3.1760    1.0881   -0.5311 C.3     1  UNL1        0.0000
      8 H           5.8727    3.9737    3.9352 H       1  UNL1        0.0000
      9 H           6.2027    4.5965    2.3023 H       1  UNL1        0.0000
     10 H           4.7287    5.1020    3.1801 H       1  UNL1        0.0000
     11 H           4.0175    2.2758    4.2821 H       1  UNL1        0.0000
     12 H           2.8551    3.3978    3.5509 H       1  UNL1        0.0000
     13 H           3.0236    1.7615    2.9100 H       1  UNL1        0.0000
     14 H           6.2933    2.2897    1.2397 H       1  UNL1        0.0000
     15 H           6.1952    1.6740    2.9066 H       1  UNL1        0.0000
     16 H           5.0679    1.0878    1.6741 H       1  UNL1        0.0000
     17 H           2.9817    0.4052    0.2896 H       1  UNL1        0.0000
     18 H           2.5091    0.8153   -1.3424 H       1  UNL1        0.0000
     19 H           4.1965    0.9296   -0.8704 H       1  UNL1        0.0000
     20 N           3.5905    4.0316   -1.1638 N.3     1  UNL1        0.0000
     21 C           1.0881    3.1761    0.5311 C.3     1  UNL1        0.0000
     22 C           3.0938    4.6333   -2.3676 C.3     1  UNL1        0.0000
     23 H           0.4051    2.9818   -0.2896 H       1  UNL1        0.0000
     24 H           0.8153    2.5093    1.3424 H       1  UNL1        0.0000
     25 H           0.9296    4.1966    0.8704 H       1  UNL1        0.0000
     26 C           4.2690    5.4128   -2.9940 C.3     1  UNL1        0.0000
     27 C           2.5972    3.5628   -3.3484 C.3     1  UNL1        0.0000
     28 C           1.9563    5.6156   -2.0307 C.3     1  UNL1        0.0000
     29 H           3.9737    5.8727   -3.9352 H       1  UNL1        0.0000
     30 H           4.5965    6.2027   -2.3023 H       1  UNL1        0.0000
     31 H           5.1021    4.7287   -3.1800 H       1  UNL1        0.0000
     32 H           2.2759    4.0174   -4.2821 H       1  UNL1        0.0000
     33 H           3.3979    2.8550   -3.5508 H       1  UNL1        0.0000
     34 H           1.7615    3.0235   -2.9101 H       1  UNL1        0.0000
     35 H           2.2897    6.2933   -1.2398 H       1  UNL1        0.0000
     36 H           1.6740    6.1951   -2.9067 H       1  UNL1        0.0000
     37 H           1.0878    5.0678   -1.6742 H       1  UNL1        0.0000
@<TRIPOS>BOND
     1    32    27    1
     2    29    26    1
     3    33    27    1
     4    27    34    1
     5    27    22    1
     6    31    26    1
     7    26    22    1
     8    26    30    1
     9    36    28    1
    10    22    28    1
    11    22    20    1
    12    28    37    1
    13    28    35    1
    14    18     7    1
    15    20     1    1
    16    19     7    1
    17     7     1    1
    18     7    17    1
    19    23    21    1
    20     1    21    1
    21     1     2    1
    22    21    25    1
    23    21    24    1
    24     2     3    1
    25    14     6    1
    26    16     6    1
    27     6     3    1
    28     6    15    1
    29     9     4    1
    30     3     4    1
    31     3     5    1
    32    13     5    1
    33     4    10    1
    34     4     8    1
    35     5    12    1
    36     5    11    1
