@<TRIPOS>MOLECULE
3,4
 38 38 0 0 0
SMALL
GASTEIGER

@<TRIPOS>ATOM
      1 SI         13.9845    9.6037   10.9556 Si      1  UNL1        0.0000
      2 SI          9.6939   13.5438   11.5526 Si      1  UNL1        0.0000
      3 N          13.0854   10.9884   11.5058 N.pl3   1  UNL1        0.0000
      4 N          11.2109   12.7189   11.8136 N.pl3   1  UNL1        0.0000
      5 C          13.3985   12.2569   11.0669 C.ar    1  UNL1        0.0000
      6 C          12.3710   13.2134   11.2508 C.ar    1  UNL1        0.0000
      7 C          12.5948   14.5314   10.8728 C.ar    1  UNL1        0.0000
      8 H          11.8241   15.2683   11.0296 H       1  UNL1        0.0000
      9 C          13.8054   14.9075   10.3109 C.ar    1  UNL1        0.0000
     10 H          13.9649   15.9376   10.0275 H       1  UNL1        0.0000
     11 C          14.8024   13.9696   10.1160 C.ar    1  UNL1        0.0000
     12 H          15.7452   14.2613    9.6768 H       1  UNL1        0.0000
     13 C          14.6007   12.6504   10.4910 C.ar    1  UNL1        0.0000
     14 H          15.3849   11.9247   10.3486 H       1  UNL1        0.0000
     15 C          15.7950    9.5783   11.6118 C.3     1  UNL1        0.0000
     16 H          15.9292   10.2374   12.4655 H       1  UNL1        0.0000
     17 H          16.4995    9.8916   10.8481 H       1  UNL1        0.0000
     18 H          16.0825    8.5772   11.9184 H       1  UNL1        0.0000
     19 C          13.1378    8.0329   11.6312 C.3     1  UNL1        0.0000
     20 H          13.5389    7.7300   12.5922 H       1  UNL1        0.0000
     21 H          13.2925    7.2070   10.9459 H       1  UNL1        0.0000
     22 H          12.0666    8.1798   11.7371 H       1  UNL1        0.0000
     23 C          13.9696    9.5149    9.0450 C.3     1  UNL1        0.0000
     24 H          12.9908    9.2108    8.6857 H       1  UNL1        0.0000
     25 H          14.6966    8.7964    8.6797 H       1  UNL1        0.0000
     26 H          14.1988   10.4774    8.5992 H       1  UNL1        0.0000
     27 C           9.5367   15.1604   12.5851 C.3     1  UNL1        0.0000
     28 H          10.0208   15.0715   13.5542 H       1  UNL1        0.0000
     29 H           8.4911   15.3938   12.7611 H       1  UNL1        0.0000
     30 H           9.9745   16.0163   12.0818 H       1  UNL1        0.0000
     31 C           9.4685   13.9169    9.6888 C.3     1  UNL1        0.0000
     32 H          10.3897   14.2677    9.2355 H       1  UNL1        0.0000
     33 H           8.7086   14.6754    9.5300 H       1  UNL1        0.0000
     34 H           9.1604   13.0217    9.1564 H       1  UNL1        0.0000
     35 C           8.2478   12.4220   12.0964 C.3     1  UNL1        0.0000
     36 H           8.5448   11.3784   12.1267 H       1  UNL1        0.0000
     37 H           7.4250   12.5131   11.3962 H       1  UNL1        0.0000
     38 H           7.8658   12.6978   13.0732 H       1  UNL1        0.0000
@<TRIPOS>BOND
     1    26    23    1
     2    25    23    1
     3    24    23    1
     4    23     1    1
     5    34    31    1
     6    32    31    1
     7    33    31    1
     8    12    11    1
     9    31     2    1
    10    10     9    1
    11    11     9   ar
    12    11    13   ar
    13     9     7   ar
    14    14    13    1
    15    13     5   ar
    16    17    15    1
    17     7     8    1
    18     7     6   ar
    19    21    19    1
    20     1     3    1
    21     1    15    1
    22     1    19    1
    23     5     6   ar
    24     5     3    1
    25     6     4    1
    26    37    35    1
    27     2     4    1
    28     2    35    1
    29     2    27    1
    30    15    18    1
    31    15    16    1
    32    19    22    1
    33    19    20    1
    34    30    27    1
    35    35    36    1
    36    35    38    1
    37    27    29    1
    38    27    28    1
