@<TRIPOS>MOLECULE
3,4
 38 38 0 0 0
SMALL
GASTEIGER

@<TRIPOS>ATOM
      1 SI         16.6641    8.3151    8.4200 Si      1  UNL1        0.0000
      2 SI         11.7290   11.4113    8.2814 Si      1  UNL1        0.0000
      3 N          14.9461    8.5872    8.4393 N.pl3   1  UNL1        0.0000
      4 N          12.7224    9.9867    8.3819 N.pl3   1  UNL1        0.0000
      5 C          14.0672    8.3504    9.4589 C.ar    1  UNL1        0.0000
      6 C          12.8508    9.1166    9.4280 C.ar    1  UNL1        0.0000
      7 C          11.9199    8.9446   10.4568 C.ar    1  UNL1        0.0000
      8 H          11.0089    9.5251   10.4335 H       1  UNL1        0.0000
      9 C          12.1590    8.0570   11.4849 C.ar    1  UNL1        0.0000
     10 H          11.4291    7.9380   12.2718 H       1  UNL1        0.0000
     11 C          13.3349    7.3154   11.5144 C.ar    1  UNL1        0.0000
     12 H          13.5136    6.6233   12.3239 H       1  UNL1        0.0000
     13 C          14.2755    7.4596   10.5161 C.ar    1  UNL1        0.0000
     14 H          15.1919    6.8877   10.5388 H       1  UNL1        0.0000
     15 C          17.4727    9.0360    9.9962 C.3     1  UNL1        0.0000
     16 H          17.2188   10.0849   10.1216 H       1  UNL1        0.0000
     17 H          18.5538    8.9621    9.9416 H       1  UNL1        0.0000
     18 H          17.1509    8.5143   10.8923 H       1  UNL1        0.0000
     19 C          17.2093    9.2562    6.8543 C.3     1  UNL1        0.0000
     20 H          16.5454    9.0159    6.0231 H       1  UNL1        0.0000
     21 H          18.2210    8.9967    6.5622 H       1  UNL1        0.0000
     22 H          17.1770   10.3318    7.0038 H       1  UNL1        0.0000
     23 C          17.0872    6.4568    8.2164 C.3     1  UNL1        0.0000
     24 H          16.9011    5.8824    9.1195 H       1  UNL1        0.0000
     25 H          18.1334    6.3250    7.9592 H       1  UNL1        0.0000
     26 H          16.4932    6.0200    7.4170 H       1  UNL1        0.0000
     27 C          11.9480   12.5005    9.8381 C.3     1  UNL1        0.0000
     28 H          11.5769   12.0108   10.7331 H       1  UNL1        0.0000
     29 H          11.4116   13.4373    9.7282 H       1  UNL1        0.0000
     30 H          12.9949   12.7370   10.0067 H       1  UNL1        0.0000
     31 C          12.4080   12.2728    6.7221 C.3     1  UNL1        0.0000
     32 H          13.3834   12.7154    6.9039 H       1  UNL1        0.0000
     33 H          11.7484   13.0634    6.3814 H       1  UNL1        0.0000
     34 H          12.5161   11.5506    5.9121 H       1  UNL1        0.0000
     35 C           9.8852   10.9670    8.0048 C.3     1  UNL1        0.0000
     36 H           9.7911   10.2228    7.2173 H       1  UNL1        0.0000
     37 H           9.3182   11.8414    7.7016 H       1  UNL1        0.0000
     38 H           9.4116   10.5672    8.8970 H       1  UNL1        0.0000
@<TRIPOS>BOND
     1    34    31    1
     2    20    19    1
     3    33    31    1
     4    21    19    1
     5    31    32    1
     6    31     2    1
     7    19    22    1
     8    19     1    1
     9    36    35    1
    10    26    23    1
    11    37    35    1
    12    25    23    1
    13    35     2    1
    14    35    38    1
    15    23     1    1
    16    23    24    1
    17     2     4    1
    18     2    27    1
    19     4     6    1
    20     1     3    1
    21     1    15    1
    22     3     5    1
    23     6     5   ar
    24     6     7   ar
    25     5    13   ar
    26    29    27    1
    27    27    30    1
    28    27    28    1
    29    17    15    1
    30    15    16    1
    31    15    18    1
    32     8     7    1
    33     7     9   ar
    34    13    14    1
    35    13    11   ar
    36     9    11   ar
    37     9    10    1
    38    11    12    1
