@<TRIPOS>MOLECULE
4,5
 72 74 0 0 0
SMALL
GASTEIGER

@<TRIPOS>ATOM
      1 P          12.3365    5.4739    6.2339 P.3     1  UNL1        0.0000
      2 SI         12.2898    2.6098    5.4334 Si      1  UNL1        0.0000
      3 SI         12.3858    6.0391    9.2297 Si      1  UNL1        0.0000
      4 N          10.9560    2.5462    6.4795 N.pl3   1  UNL1        0.0000
      5 N          10.8646    5.3422    8.9328 N.pl3   1  UNL1        0.0000
      6 C          10.2951    1.3996    6.9246 C.ar    1  UNL1        0.0000
      7 C           9.4335    0.6594    6.1019 C.ar    1  UNL1        0.0000
      8 C           8.7904   -0.4540    6.6217 C.ar    1  UNL1        0.0000
      9 H           8.1215   -1.0180    5.9870 H       1  UNL1        0.0000
     10 C           8.9815   -0.8440    7.9345 C.ar    1  UNL1        0.0000
     11 H           8.4668   -1.7095    8.3233 H       1  UNL1        0.0000
     12 C           9.8279   -0.1134    8.7514 C.ar    1  UNL1        0.0000
     13 H           9.9753   -0.4122    9.7799 H       1  UNL1        0.0000
     14 C          10.4867    1.0005    8.2616 C.ar    1  UNL1        0.0000
     15 C           9.6553    5.8588    9.4335 C.ar    1  UNL1        0.0000
     16 C           9.0471    5.2645   10.5562 C.ar    1  UNL1        0.0000
     17 C           7.8320    5.7456   11.0160 C.ar    1  UNL1        0.0000
     18 H           7.3716    5.2751   11.8726 H       1  UNL1        0.0000
     19 C           7.2021    6.8067   10.3919 C.ar    1  UNL1        0.0000
     20 H           6.2506    7.1650   10.7540 H       1  UNL1        0.0000
     21 C           7.8058    7.4104    9.3048 C.ar    1  UNL1        0.0000
     22 H           7.3277    8.2528    8.8240 H       1  UNL1        0.0000
     23 C           9.0268    6.9612    8.8202 C.ar    1  UNL1        0.0000
     24 C          12.9158    6.3490    4.7244 C.ar    1  UNL1        0.0000
     25 C          12.0884    7.3823    4.2878 C.ar    1  UNL1        0.0000
     26 H          11.1720    7.5858    4.8294 H       1  UNL1        0.0000
     27 C          12.4191    8.1397    3.1805 C.ar    1  UNL1        0.0000
     28 H          11.7671    8.9373    2.8553 H       1  UNL1        0.0000
     29 C          13.5853    7.8682    2.4838 C.ar    1  UNL1        0.0000
     30 H          13.8470    8.4526    1.6143 H       1  UNL1        0.0000
     31 C          14.4123    6.8413    2.9053 C.ar    1  UNL1        0.0000
     32 H          15.3224    6.6258    2.3641 H       1  UNL1        0.0000
     33 C          14.0818    6.0860    4.0171 C.ar    1  UNL1        0.0000
     34 H          14.7436    5.2905    4.3244 H       1  UNL1        0.0000
     35 C          13.3566    3.9574    6.3119 C.3     1  UNL1        0.0000
     36 H          13.4554    3.7105    7.3715 H       1  UNL1        0.0000
     37 H          14.3546    4.1098    5.9059 H       1  UNL1        0.0000
     38 C          11.8936    3.2997    3.6839 C.3     1  UNL1        0.0000
     39 H          11.1682    4.1092    3.7636 H       1  UNL1        0.0000
     40 H          11.4779    2.5474    3.0217 H       1  UNL1        0.0000
     41 H          12.7799    3.7009    3.2020 H       1  UNL1        0.0000
     42 C          13.2776    0.9802    5.2764 C.3     1  UNL1        0.0000
     43 H          12.5989    0.1670    5.0463 H       1  UNL1        0.0000
     44 H          13.7876    0.7228    6.1988 H       1  UNL1        0.0000
     45 H          14.0189    1.0268    4.4867 H       1  UNL1        0.0000
     46 C           9.2100    1.0911    4.6837 C.3     1  UNL1        0.0000
     47 H           9.1564    2.1804    4.6344 H       1  UNL1        0.0000
     48 H           8.2905    0.6623    4.2930 H       1  UNL1        0.0000
     49 H          10.0390    0.7680    4.0535 H       1  UNL1        0.0000
     50 C          11.4330    1.8046    9.1144 C.3     1  UNL1        0.0000
     51 H          11.1683    2.8808    9.0689 H       1  UNL1        0.0000
     52 H          12.4532    1.6817    8.7360 H       1  UNL1        0.0000
     53 H          11.4021    1.4614   10.1476 H       1  UNL1        0.0000
     54 C          13.1527    6.5199    7.5140 C.3     1  UNL1        0.0000
     55 H          12.9532    7.5661    7.2773 H       1  UNL1        0.0000
     56 H          14.2324    6.3706    7.4658 H       1  UNL1        0.0000
     57 C          12.3388    7.5955   10.3389 C.3     1  UNL1        0.0000
     58 H          12.0701    8.4929    9.7924 H       1  UNL1        0.0000
     59 H          13.2973    7.7730   10.8135 H       1  UNL1        0.0000
     60 H          11.6014    7.4603   11.1227 H       1  UNL1        0.0000
     61 C          13.5978    4.8023   10.0705 C.3     1  UNL1        0.0000
     62 H          13.5301    3.7966    9.6655 H       1  UNL1        0.0000
     63 H          13.4056    4.7362   11.1368 H       1  UNL1        0.0000
     64 H          14.6238    5.1355    9.9506 H       1  UNL1        0.0000
     65 C           9.7006    4.0967   11.2355 C.3     1  UNL1        0.0000
     66 H          10.7860    4.1850   11.1880 H       1  UNL1        0.0000
     67 H           9.3892    3.1727   10.7410 H       1  UNL1        0.0000
     68 H           9.3902    4.0439   12.2770 H       1  UNL1        0.0000
     69 C           9.6897    7.7055    7.6913 C.3     1  UNL1        0.0000
     70 H           8.9411    8.1783    7.0571 H       1  UNL1        0.0000
     71 H          10.3110    7.0354    7.0882 H       1  UNL1        0.0000
     72 H          10.3282    8.4923    8.0981 H       1  UNL1        0.0000
@<TRIPOS>BOND
     1    30    29    1
     2    32    31    1
     3    29    31   ar
     4    29    27   ar
     5    28    27    1
     6    31    33   ar
     7    40    38    1
     8    27    25   ar
     9    41    38    1
    10    38    39    1
    11    38     2    1
    12    33    34    1
    13    33    24   ar
    14    49    46    1
    15    25    24   ar
    16    25    26    1
    17    48    46    1
    18    45    42    1
    19    47    46    1
    20    46     7    1
    21    24     1    1
    22    43    42    1
    23    42     2    1
    24    42    44    1
    25     2    35    1
    26     2     4    1
    27    37    35    1
    28     9     8    1
    29     7     8   ar
    30     7     6   ar
    31     1    35    1
    32     1    54    1
    33    35    36    1
    34     4     6    1
    35     8    10   ar
    36     6    14   ar
    37    70    69    1
    38    71    69    1
    39    55    54    1
    40    56    54    1
    41    54     3    1
    42    69    72    1
    43    69    23    1
    44    10    11    1
    45    10    12   ar
    46    14    12   ar
    47    14    50    1
    48    52    50    1
    49    12    13    1
    50    23    21   ar
    51    23    15   ar
    52    22    21    1
    53     5     3    1
    54     5    15    1
    55    51    50    1
    56    50    53    1
    57     3    61    1
    58     3    57    1
    59    21    19   ar
    60    15    16   ar
    61    62    61    1
    62    58    57    1
    63    64    61    1
    64    61    63    1
    65    57    59    1
    66    57    60    1
    67    19    20    1
    68    19    17   ar
    69    16    17   ar
    70    16    65    1
    71    67    65    1
    72    17    18    1
    73    66    65    1
    74    65    68    1
