@<TRIPOS>MOLECULE
1,3
 44 46 0 0 0
SMALL
GASTEIGER

@<TRIPOS>ATOM
      1 N          21.6988   23.6751   14.8597 N.pl3   1  UNL1       -0.1513
      2 N          20.3245   23.9536   14.7648 N.pl3   1  UNL1       -0.2020
      3 N          24.2888   24.0988   14.9904 N.2     1  UNL1       -0.1536
      4 C          24.4056   22.9435   15.5051 C.2     1  UNL1        0.0695
      5 C          23.2568   22.1188   15.8395 C.2     1  UNL1        0.0221
      6 C          21.9925   22.5408   15.4985 C.2     1  UNL1        0.0442
      7 C          25.7977   22.3886   15.7621 C.3     1  UNL1       -0.0200
      8 C          23.3877   20.8334   16.5363 C.ar    1  UNL1       -0.0121
      9 C          24.1144   20.7193   17.7213 C.ar    1  UNL1       -0.0186
     10 C          24.2016   19.4948   18.3494 C.ar    1  UNL1        0.1240
     11 C          23.5869   18.3595   17.8546 C.ar    1  UNL1       -0.0264
     12 C          22.8545   18.4768   16.6848 C.ar    1  UNL1       -0.0585
     13 C          22.7562   19.6925   16.0353 C.ar    1  UNL1       -0.0538
     14 C          19.5802   24.0553   15.9352 C.ar    1  UNL1        0.0550
     15 C          20.2180   24.4080   17.1285 C.ar    1  UNL1       -0.0387
     16 C          19.4999   24.4895   18.3045 C.ar    1  UNL1       -0.0599
     17 C          18.1404   24.2201   18.3228 C.ar    1  UNL1       -0.0616
     18 C          17.5076   23.8500   17.1474 C.ar    1  UNL1       -0.0599
     19 C          18.2146   23.7574   15.9645 C.ar    1  UNL1       -0.0387
     20 C          19.7767   24.0011   13.4884 C.ar    1  UNL1        0.0550
     21 C          20.3137   23.2016   12.4732 C.ar    1  UNL1       -0.0387
     22 C          19.8038   23.2716   11.1909 C.ar    1  UNL1       -0.0599
     23 C          18.7547   24.1273   10.8932 C.ar    1  UNL1       -0.0616
     24 C          18.2145   24.9182   11.8960 C.ar    1  UNL1       -0.0599
     25 C          18.7184   24.8660   13.1810 C.ar    1  UNL1       -0.0387
     26 F          24.9109   19.4049   19.5008 F       1  UNL1       -0.2055
     27 H          21.1482   21.9209   15.8148 H       1  UNL1        0.0824
     28 H          25.8133   21.3055   15.6780 H       1  UNL1        0.0293
     29 H          26.1373   22.6679   16.7583 H       1  UNL1        0.0293
     30 H          26.4870   22.8205   15.0383 H       1  UNL1        0.0293
     31 H          24.5886   21.5794   18.1653 H       1  UNL1        0.0652
     32 H          23.6810   17.4210   18.3765 H       1  UNL1        0.0646
     33 H          22.3621   17.6066   16.2766 H       1  UNL1        0.0619
     34 H          22.1950   19.7656   15.1154 H       1  UNL1        0.0624
     35 H          21.2774   24.6235   17.1112 H       1  UNL1        0.0637
     36 H          20.0063   24.7706   19.2164 H       1  UNL1        0.0618
     37 H          17.5820   24.2885   19.2438 H       1  UNL1        0.0618
     38 H          16.4525   23.6176   17.1526 H       1  UNL1        0.0618
     39 H          17.7133   23.4368   15.0635 H       1  UNL1        0.0637
     40 H          21.1196   22.5209   12.7050 H       1  UNL1        0.0637
     41 H          20.2237   22.6442   10.4183 H       1  UNL1        0.0618
     42 H          18.3579   24.1770    9.8904 H       1  UNL1        0.0618
     43 H          17.3984   25.5905   11.6723 H       1  UNL1        0.0618
     44 H          18.3011   25.4958   13.9537 H       1  UNL1        0.0637
@<TRIPOS>BOND
     1    42    23    1
     2    41    22    1
     3    23    22   ar
     4    23    24   ar
     5    22    21   ar
     6    43    24    1
     7    24    25   ar
     8    21    40    1
     9    21    20   ar
    10    25    20   ar
    11    25    44    1
    12    20     2    1
    13     2     1    1
    14     2    14    1
    15     1     6    1
    16     3     4    2
    17    30     7    1
    18    39    19    1
    19    34    13    1
    20     6    27    1
    21     6     5    2
    22     4     7    1
    23     4     5    1
    24    28     7    1
    25     7    29    1
    26     5     8    1
    27    14    19   ar
    28    14    15   ar
    29    19    18   ar
    30    13     8   ar
    31    13    12   ar
    32    33    12    1
    33     8     9   ar
    34    12    11   ar
    35    35    15    1
    36    15    16   ar
    37    18    38    1
    38    18    17   ar
    39     9    31    1
    40     9    10   ar
    41    11    10   ar
    42    11    32    1
    43    16    17   ar
    44    16    36    1
    45    17    37    1
    46    10    26    1
