@<TRIPOS>MOLECULE
1,4
 35 36 0 0 0
SMALL
GASTEIGER

@<TRIPOS>ATOM
      1 N           8.1692    3.5388    4.8829 N.pl3   1  UNL1       -0.0974
      2 N           9.1194    4.4915    5.1482 N.2     1  UNL1       -0.0360
      3 N          10.2371    4.4129    4.6107 N.2     1  UNL1       -0.0360
      4 N          10.4995    3.3479    3.7957 N.pl3   1  UNL1       -0.0980
      5 C           7.0156    3.6018    5.6514 C.ar    1  UNL1        0.0823
      6 C           5.8292    3.1004    5.0658 C.ar    1  UNL1       -0.0252
      7 C           4.6657    3.0059    5.8078 C.ar    1  UNL1       -0.0540
      8 H           3.7733    2.6151    5.3374 H       1  UNL1        0.0623
      9 C           4.6138    3.4205    7.1303 C.ar    1  UNL1       -0.0498
     10 C           5.7658    3.9616    7.6844 C.ar    1  UNL1       -0.0540
     11 H           5.7333    4.3137    8.7066 H       1  UNL1        0.0623
     12 C           6.9575    4.0709    6.9858 C.ar    1  UNL1       -0.0252
     13 C           5.8267    2.7312    3.6092 C.3     1  UNL1       -0.0378
     14 H           6.0079    3.6311    3.0165 H       1  UNL1        0.0278
     15 H           4.8592    2.3195    3.3257 H       1  UNL1        0.0278
     16 H           6.6203    2.0075    3.3637 H       1  UNL1        0.0278
     17 C           3.3587    3.2984    7.9420 C.3     1  UNL1       -0.0397
     18 H           2.5097    3.0543    7.3080 H       1  UNL1        0.0278
     19 H           3.1475    4.2294    8.4652 H       1  UNL1        0.0278
     20 H           3.4637    2.5130    8.6920 H       1  UNL1        0.0278
     21 C           8.1410    4.6771    7.6809 C.3     1  UNL1       -0.0378
     22 H           7.9373    4.7799    8.7453 H       1  UNL1        0.0278
     23 H           8.3575    5.6591    7.2660 H       1  UNL1        0.0278
     24 H           9.0358    4.0723    7.5475 H       1  UNL1        0.0278
     25 C          11.7382    3.3005    3.2104 C.ar    1  UNL1        0.0765
     26 C          12.7681    4.2171    3.4677 C.ar    1  UNL1       -0.0370
     27 H          12.5857    5.0148    4.1716 H       1  UNL1        0.0637
     28 C          13.9812    4.0905    2.8226 C.ar    1  UNL1       -0.0599
     29 H          14.7697    4.8001    3.0295 H       1  UNL1        0.0618
     30 C          14.1997    3.0670    1.9130 C.ar    1  UNL1       -0.0616
     31 H          15.1520    2.9773    1.4128 H       1  UNL1        0.0618
     32 C          13.1830    2.1601    1.6460 C.ar    1  UNL1       -0.0599
     33 H          13.3491    1.3649    0.9321 H       1  UNL1        0.0618
     34 C          11.9635    2.2685    2.2830 C.ar    1  UNL1       -0.0370
     35 H          11.1402    1.5801    2.0886 H       1  UNL1        0.0637
@<TRIPOS>BOND
     1    33    32    1
     2    31    30    1
     3    32    30   ar
     4    32    34   ar
     5    30    28   ar
     6    35    34    1
     7    34    25   ar
     8    28    29    1
     9    28    26   ar
    10    14    13    1
    11    25    26   ar
    12    25     4    1
    13    15    13    1
    14    16    13    1
    15    26    27    1
    16    13     6    1
    17     4     3    1
    18     3     2    2
    19     1     2    1
    20     1     5    1
    21     6     5   ar
    22     6     7   ar
    23     8     7    1
    24     5    12   ar
    25     7     9   ar
    26    12    21    1
    27    12    10   ar
    28     9    10   ar
    29     9    17    1
    30    23    21    1
    31    18    17    1
    32    24    21    1
    33    21    22    1
    34    10    11    1
    35    17    19    1
    36    17    20    1
