@<TRIPOS>MOLECULE
4,12
 19 20 0 0 0
SMALL
GASTEIGER

@<TRIPOS>ATOM
      1 B           0.4729    3.1117    5.4811 B       1  UNL1        0.0000
      2 H           1.5325    3.6010    5.2400 H       1  UNL1        0.0000
      3 H          -0.1243    3.6797    6.3350 H       1  UNL1        0.0000
      4 N           1.1136    0.6785    5.1181 N.3     1  UNL1        0.0000
      5 N           0.6813    1.6468    5.9220 N.pl3   1  UNL1        0.0000
      6 C           1.2488   -0.4357    5.8395 C.3     1  UNL1        0.0000
      7 H           1.5585   -1.3540    5.3801 H       1  UNL1        0.0000
      8 C           0.9054   -0.1730    7.1559 C.2     1  UNL1        0.0000
      9 H           0.9059   -0.8518    7.9832 H       1  UNL1        0.0000
     10 C           0.5522    1.1675    7.1570 C.2     1  UNL1        0.0000
     11 H           0.2228    1.7911    7.9628 H       1  UNL1        0.0000
     12 N          -0.1245    2.3790    3.1209 N.3     1  UNL1        0.0000
     13 N          -0.3877    3.1131    4.1992 N.pl3   1  UNL1        0.0000
     14 C          -1.0210    2.6805    2.1798 C.3     1  UNL1        0.0000
     15 H          -1.0132    2.1787    1.2321 H       1  UNL1        0.0000
     16 C          -1.8827    3.6520    2.6633 C.2     1  UNL1        0.0000
     17 H          -2.7092    4.1072    2.1586 H       1  UNL1        0.0000
     18 C          -1.4368    3.8944    3.9532 C.2     1  UNL1        0.0000
     19 H          -1.8084    4.5738    4.6929 H       1  UNL1        0.0000
@<TRIPOS>BOND
     1    15    14    1
     2    17    16    1
     3    14    16    1
     4    14    12    1
     5    16    18    2
     6    12    13    1
     7    18    13    1
     8    18    19    1
     9    13     1    1
    10     4     6    1
    11     4     5    1
    12     2     1    1
    13     7     6    1
    14     1     5    1
    15     1     3    1
    16     6     8    1
    17     5    10    1
    18     8    10    2
    19     8     9    1
    20    10    11    1
