@<TRIPOS>MOLECULE
4,12
 19 20 0 0 0
SMALL
GASTEIGER

@<TRIPOS>ATOM
      1 B           2.4000   -1.2180    0.6030 B       1  UNL1        0.0000
      2 H           1.3254   -1.6123    0.9326 H       1  UNL1        0.0000
      3 H           2.9243   -1.8444   -0.2542 H       1  UNL1        0.0000
      4 N           2.9896   -0.5049    2.9387 N.3     1  UNL1        0.0000
      5 N           3.3126   -1.1920    1.8477 N.pl3   1  UNL1        0.0000
      6 C           3.9463   -0.6884    3.8480 C.3     1  UNL1        0.0000
      7 H           3.9006   -0.2102    4.8067 H       1  UNL1        0.0000
      8 C           4.9149   -1.5333    3.3280 C.2     1  UNL1        0.0000
      9 H           5.8087   -1.8792    3.8046 H       1  UNL1        0.0000
     10 C           4.4629   -1.8280    2.0503 C.2     1  UNL1        0.0000
     11 H           4.8970   -2.4487    1.2932 H       1  UNL1        0.0000
     12 N           1.7577    1.1861    0.9495 N.3     1  UNL1        0.0000
     13 N           2.2624    0.2514    0.1505 N.pl3   1  UNL1        0.0000
     14 C           1.7409    2.3409    0.2849 C.3     1  UNL1        0.0000
     15 H           1.3865    3.2420    0.7458 H       1  UNL1        0.0000
     16 C           2.2424    2.1405   -0.9922 C.2     1  UNL1        0.0000
     17 H           2.3590    2.8636   -1.7727 H       1  UNL1        0.0000
     18 C           2.5589    0.7906   -1.0284 C.2     1  UNL1        0.0000
     19 H           2.9712    0.2019   -1.8223 H       1  UNL1        0.0000
@<TRIPOS>BOND
     1    19    18    1
     2    17    16    1
     3    18    16    2
     4    18    13    1
     5    16    14    1
     6     3     1    1
     7    13     1    1
     8    13    12    1
     9    14    15    1
    10    14    12    1
    11     1     2    1
    12     1     5    1
    13    11    10    1
    14     5    10    1
    15     5     4    1
    16    10     8    2
    17     4     6    1
    18     8     9    1
    19     8     6    1
    20     6     7    1
