@<TRIPOS>MOLECULE
1,2
 46 47 0 0 0
SMALL
GASTEIGER

@<TRIPOS>ATOM
      1 N           6.4913    9.6609    2.9007 N.3     1  UNL1       -0.1958
      2 N           4.5880   10.4958    3.7338 N.3     1  UNL1       -0.1958
      3 N           5.8049   11.7717    2.0700 N.3     1  UNL1       -0.2724
      4 C           7.4248    9.5241    1.7933 C.3     1  UNL1        0.0288
      5 H           7.3863   10.4109    1.1429 H       1  UNL1        0.0478
      6 C           7.0236    8.2959    0.9666 C.3     1  UNL1       -0.0359
      7 H           6.0031    8.4349    0.6014 H       1  UNL1        0.0281
      8 H           7.0345    7.4285    1.6308 H       1  UNL1        0.0281
      9 C           7.9748    8.0872   -0.2076 C.3     1  UNL1       -0.0516
     10 H           7.6758    7.2020   -0.7736 H       1  UNL1        0.0266
     11 H           7.9186    8.9471   -0.8810 H       1  UNL1        0.0266
     12 C           9.4084    7.9258    0.2861 C.3     1  UNL1       -0.0530
     13 H           9.4780    7.0213    0.8923 H       1  UNL1        0.0265
     14 H          10.0871    7.8144   -0.5627 H       1  UNL1        0.0265
     15 C           9.8197    9.1322    1.1237 C.3     1  UNL1       -0.0516
     16 H           9.8163   10.0264    0.4946 H       1  UNL1        0.0266
     17 H          10.8361    8.9948    1.4999 H       1  UNL1        0.0266
     18 C           8.8606    9.3361    2.2943 C.3     1  UNL1       -0.0359
     19 H           9.1747   10.2095    2.8726 H       1  UNL1        0.0281
     20 H           8.8821    8.4634    2.9524 H       1  UNL1        0.0281
     21 C           5.6247   10.6572    2.9191 C.3     1  UNL1        0.2083
     22 C           6.8702   12.7012    2.3529 C.3     1  UNL1       -0.0100
     23 H           6.5099   13.5760    2.9146 H       1  UNL1        0.0392
     24 H           7.3119   13.0571    1.4165 H       1  UNL1        0.0392
     25 H           7.6377   12.2065    2.9428 H       1  UNL1        0.0392
     26 C           4.7069   12.3157    1.3130 C.3     1  UNL1       -0.0100
     27 H           3.9446   11.5495    1.1943 H       1  UNL1        0.0392
     28 H           5.0759   12.5972    0.3204 H       1  UNL1        0.0392
     29 H           4.2556   13.2081    1.7680 H       1  UNL1        0.0392
     30 C           3.8405   11.6319    4.2485 C.3     1  UNL1        0.0288
     31 H           4.2736   12.5835    3.9032 H       1  UNL1        0.0478
     32 C           2.3671   11.5776    3.8153 C.3     1  UNL1       -0.0359
     33 H           2.2948   11.6535    2.7287 H       1  UNL1        0.0281
     34 H           1.9552   10.6093    4.1067 H       1  UNL1        0.0281
     35 C           1.5559   12.6936    4.4666 C.3     1  UNL1       -0.0516
     36 H           1.9400   13.6633    4.1394 H       1  UNL1        0.0266
     37 H           0.5136   12.6244    4.1472 H       1  UNL1        0.0266
     38 C           1.6453   12.6024    5.9860 C.3     1  UNL1       -0.0530
     39 H           1.2303   11.6483    6.3167 H       1  UNL1        0.0265
     40 H           1.0592   13.4029    6.4428 H       1  UNL1        0.0265
     41 C           3.1015   12.7003    6.4276 C.3     1  UNL1       -0.0516
     42 H           3.1686   12.6231    7.5145 H       1  UNL1        0.0266
     43 H           3.4981   13.6774    6.1382 H       1  UNL1        0.0266
     44 C           3.9358   11.5963    5.7821 C.3     1  UNL1       -0.0359
     45 H           3.6034   10.6075    6.1215 H       1  UNL1        0.0281
     46 H           4.9866   11.7063    6.0591 H       1  UNL1        0.0281
@<TRIPOS>BOND
     1    11     9    1
     2    10     9    1
     3    14    12    1
     4     9    12    1
     5     9     6    1
     6    12    13    1
     7    12    15    1
     8    28    26    1
     9    16    15    1
    10     7     6    1
    11     6     8    1
    12     6     4    1
    13    15    17    1
    14    15    18    1
    15     5     4    1
    16    27    26    1
    17    26    29    1
    18    26     3    1
    19    24    22    1
    20     4    18    1
    21     4     1    1
    22     3    22    1
    23     3    21    1
    24    18    19    1
    25    18    20    1
    26    22    23    1
    27    22    25    1
    28    33    32    1
    29     1    21    1
    30    21     2    1
    31     2    30    1
    32    32    34    1
    33    32    30    1
    34    32    35    1
    35    31    30    1
    36    36    35    1
    37    37    35    1
    38    30    44    1
    39    35    38    1
    40    44    46    1
    41    44    45    1
    42    44    41    1
    43    38    39    1
    44    38    41    1
    45    38    40    1
    46    43    41    1
    47    41    42    1
