@<TRIPOS>MOLECULE
1,3
 46 47 0 0 0
SMALL
GASTEIGER

@<TRIPOS>ATOM
      1 N           1.5906    6.6106    4.6546 N.3     1  UNL1       -0.1958
      2 N           3.1699    6.9087    2.8482 N.3     1  UNL1       -0.2724
      3 N           1.8165    4.9820    3.1494 N.3     1  UNL1       -0.1958
      4 C           2.1284    7.6184    5.5492 C.3     1  UNL1        0.0288
      5 H           2.2175    8.6050    5.0657 H       1  UNL1        0.0478
      6 C           1.1350    7.7463    6.7113 C.3     1  UNL1       -0.0359
      7 H           0.9665    6.7370    7.1173 H       1  UNL1        0.0281
      8 H           0.1871    8.1214    6.3184 H       1  UNL1        0.0281
      9 C           1.6427    8.6856    7.8016 C.3     1  UNL1       -0.0516
     10 H           1.7394    9.6958    7.3942 H       1  UNL1        0.0266
     11 H           0.9197    8.7257    8.6192 H       1  UNL1        0.0266
     12 C           2.9987    8.2251    8.3246 C.3     1  UNL1       -0.0530
     13 H           3.3580    8.9138    9.0923 H       1  UNL1        0.0265
     14 H           2.8967    7.2372    8.7790 H       1  UNL1        0.0265
     15 C           3.9991    8.1546    7.1762 C.3     1  UNL1       -0.0516
     16 H           4.9708    7.8181    7.5456 H       1  UNL1        0.0266
     17 H           4.1331    9.1538    6.7523 H       1  UNL1        0.0266
     18 C           3.5048    7.2020    6.0922 C.3     1  UNL1       -0.0359
     19 H           4.2298    7.1668    5.2775 H       1  UNL1        0.0281
     20 H           3.4078    6.1918    6.4982 H       1  UNL1        0.0281
     21 C           2.2102    6.1814    3.5688 C.3     1  UNL1        0.2083
     22 C           3.0746    8.3333    2.6725 C.3     1  UNL1       -0.0100
     23 H           2.0385    8.6440    2.7850 H       1  UNL1        0.0392
     24 H           3.4000    8.5798    1.6562 H       1  UNL1        0.0392
     25 H           3.7067    8.8976    3.3733 H       1  UNL1        0.0392
     26 C           4.4867    6.3622    2.6264 C.3     1  UNL1       -0.0100
     27 H           4.5031    5.3147    2.9167 H       1  UNL1        0.0392
     28 H           5.2393    6.9005    3.2199 H       1  UNL1        0.0392
     29 H           4.7703    6.4486    1.5715 H       1  UNL1        0.0392
     30 C           2.0467    4.5736    1.7719 C.3     1  UNL1        0.0288
     31 H           2.6727    5.3107    1.2502 H       1  UNL1        0.0478
     32 C           2.7267    3.2021    1.7073 C.3     1  UNL1       -0.0359
     33 H           2.0859    2.4755    2.2166 H       1  UNL1        0.0281
     34 H           3.6869    3.2364    2.2297 H       1  UNL1        0.0281
     35 C           2.9465    2.7793    0.2572 C.3     1  UNL1       -0.0516
     36 H           3.6211    3.4887   -0.2295 H       1  UNL1        0.0266
     37 H           3.4228    1.7970    0.2293 H       1  UNL1        0.0266
     38 C           1.6241    2.7362   -0.5025 C.3     1  UNL1       -0.0530
     39 H           0.9800    1.9739   -0.0636 H       1  UNL1        0.0265
     40 H           1.8055    2.4676   -1.5454 H       1  UNL1        0.0265
     41 C           0.9191    4.0853   -0.4274 C.3     1  UNL1       -0.0516
     42 H          -0.0444    4.0297   -0.9379 H       1  UNL1        0.0266
     43 H           1.5224    4.8427   -0.9349 H       1  UNL1        0.0266
     44 C           0.7067    4.4949    1.0270 C.3     1  UNL1       -0.0359
     45 H           0.2185    5.4729    1.0657 H       1  UNL1        0.0281
     46 H           0.0731    3.7592    1.5336 H       1  UNL1        0.0281
@<TRIPOS>BOND
     1    40    38    1
     2    42    41    1
     3    43    41    1
     4    38    41    1
     5    38    39    1
     6    38    35    1
     7    41    44    1
     8    36    35    1
     9    37    35    1
    10    35    32    1
    11    44    45    1
    12    44    46    1
    13    44    30    1
    14    31    30    1
    15    29    26    1
    16    24    22    1
    17    32    30    1
    18    32    33    1
    19    32    34    1
    20    30     3    1
    21    26     2    1
    22    26    27    1
    23    26    28    1
    24    22    23    1
    25    22     2    1
    26    22    25    1
    27     2    21    1
    28     3    21    1
    29    21     1    1
    30     1     4    1
    31     5     4    1
    32    19    18    1
    33     4    18    1
    34     4     6    1
    35    18    20    1
    36    18    15    1
    37     8     6    1
    38     6     7    1
    39     6     9    1
    40    17    15    1
    41    15    16    1
    42    15    12    1
    43    10     9    1
    44     9    12    1
    45     9    11    1
    46    12    14    1
    47    12    13    1
