@<TRIPOS>MOLECULE
7,8
 66 68 0 0 0
SMALL
GASTEIGER

@<TRIPOS>ATOM
      1 P           0.1513   -4.4433   12.4857 P.3     1  UNL1        0.0000
      2 SI          0.1973   -7.2452   11.4672 Si      1  UNL1        0.0000
      3 SI          1.1460   -1.7548   13.2451 Si      1  UNL1        0.0000
      4 SI         -2.8113   -3.9502   12.7801 Si      1  UNL1        0.0000
      5 SI         -0.8705   -2.8447   10.4308 Si      1  UNL1        0.0000
      6 O          -0.0625   -4.7740   14.0399 O.3     1  UNL1        0.0000
      7 N           1.3579   -3.2900   12.3169 N.3     1  UNL1        0.0000
      8 N           0.8743   -5.6677   11.7324 N.3     1  UNL1        0.0000
      9 N          -1.2374   -3.7981   12.0161 N.3     1  UNL1        0.0000
     10 C           0.8458   -5.4888   14.7971 C.ar    1  UNL1        0.0000
     11 C           2.1397   -5.0294   14.9886 C.ar    1  UNL1        0.0000
     12 C           3.0119   -5.7474   15.7890 C.ar    1  UNL1        0.0000
     13 C           2.5959   -6.9150   16.4037 C.ar    1  UNL1        0.0000
     14 C           1.2972   -7.3611   16.2236 C.ar    1  UNL1        0.0000
     15 C           0.4197   -6.6521   15.4238 C.ar    1  UNL1        0.0000
     16 C           1.5568   -8.4805   11.9888 C.3     1  UNL1        0.0000
     17 C          -0.2313   -7.4193    9.6135 C.3     1  UNL1        0.0000
     18 C          -1.3643   -7.5585   12.5129 C.3     1  UNL1        0.0000
     19 C           2.8819   -1.1824   13.7704 C.3     1  UNL1        0.0000
     20 C           0.7893   -2.1578   11.4705 C.3     1  UNL1        0.0000
     21 C          -0.1303   -1.6843   14.6357 C.3     1  UNL1        0.0000
     22 C          -2.8225   -4.4036   14.6389 C.3     1  UNL1        0.0000
     23 C          -3.6330   -2.2338   12.6727 C.3     1  UNL1        0.0000
     24 C          -3.9216   -5.2652   11.9415 C.3     1  UNL1        0.0000
     25 C           0.3993   -3.5062    9.1147 C.3     1  UNL1        0.0000
     26 C          -1.4465   -1.0256   10.2254 C.3     1  UNL1        0.0000
     27 C          -2.3858   -3.6719    9.4856 C.3     1  UNL1        0.0000
     28 H           2.4602   -4.1122   14.5145 H       1  UNL1        0.0000
     29 H           4.0217   -5.3917   15.9229 H       1  UNL1        0.0000
     30 H           3.2801   -7.4751   17.0222 H       1  UNL1        0.0000
     31 H           0.9629   -8.2684   16.7040 H       1  UNL1        0.0000
     32 H          -0.5937   -6.9903   15.2789 H       1  UNL1        0.0000
     33 H           1.7469   -8.4403   13.0587 H       1  UNL1        0.0000
     34 H           1.2645   -9.4946   11.7391 H       1  UNL1        0.0000
     35 H           2.4959   -8.2716   11.4849 H       1  UNL1        0.0000
     36 H           0.6477   -7.2802    8.9903 H       1  UNL1        0.0000
     37 H          -0.6252   -8.4095    9.4070 H       1  UNL1        0.0000
     38 H          -0.9752   -6.6922    9.2976 H       1  UNL1        0.0000
     39 H          -1.7005   -6.6426   12.9867 H       1  UNL1        0.0000
     40 H          -2.1774   -7.9312   11.8985 H       1  UNL1        0.0000
     41 H          -1.1775   -8.2978   13.2858 H       1  UNL1        0.0000
     42 H           3.1197   -1.4831   14.7876 H       1  UNL1        0.0000
     43 H           3.6494   -1.5804   13.1114 H       1  UNL1        0.0000
     44 H           2.9351   -0.1007   13.7325 H       1  UNL1        0.0000
     45 H           1.5710   -1.7735   10.8018 H       1  UNL1        0.0000
     46 H           0.1678   -2.2933   15.4864 H       1  UNL1        0.0000
     47 H          -0.2392   -0.6609   14.9815 H       1  UNL1        0.0000
     48 H          -1.0952   -2.0342   14.2877 H       1  UNL1        0.0000
     49 H          -2.5560   -5.4405   14.8137 H       1  UNL1        0.0000
     50 H          -2.1619   -3.7949   15.2451 H       1  UNL1        0.0000
     51 H          -3.8323   -4.2638   15.0146 H       1  UNL1        0.0000
     52 H          -3.1199   -1.4791   13.2607 H       1  UNL1        0.0000
     53 H          -3.6780   -1.8724   11.6534 H       1  UNL1        0.0000
     54 H          -4.6496   -2.3005   13.0473 H       1  UNL1        0.0000
     55 H          -4.3113   -5.9685   12.6725 H       1  UNL1        0.0000
     56 H          -4.7748   -4.7897   11.4686 H       1  UNL1        0.0000
     57 H          -3.4029   -5.8349   11.1790 H       1  UNL1        0.0000
     58 H          -0.0534   -4.1579    8.3760 H       1  UNL1        0.0000
     59 H           0.8569   -2.6792    8.5809 H       1  UNL1        0.0000
     60 H           1.2185   -4.0843    9.5792 H       1  UNL1        0.0000
     61 H          -1.5842   -0.5014   11.1627 H       1  UNL1        0.0000
     62 H          -0.7098   -0.4755    9.6536 H       1  UNL1        0.0000
     63 H          -2.3740   -0.9852    9.6723 H       1  UNL1        0.0000
     64 H          -2.3378   -4.7578    9.4241 H       1  UNL1        0.0000
     65 H          -3.3439   -3.4247    9.9312 H       1  UNL1        0.0000
     66 H          -2.4146   -3.3004    8.4629 H       1  UNL1        0.0000
@<TRIPOS>BOND
     1    58    25    1
     2    66    27    1
     3    59    25    1
     4    36    17    1
     5    25    60    1
     6    25     5    1
     7    38    17    1
     8    37    17    1
     9    64    27    1
    10    27    65    1
    11    27     5    1
    12    17     2    1
    13    62    26    1
    14    63    26    1
    15    26     5    1
    16    26    61    1
    17     5    20    1
    18     5     9    1
    19    45    20    1
    20    57    24    1
    21     2     8    1
    22     2    16    1
    23     2    18    1
    24    56    24    1
    25    20     7    1
    26    20     3    1
    27    35    16    1
    28    53    23    1
    29     8     1    1
    30    34    16    1
    31    40    18    1
    32    24    55    1
    33    24     4    1
    34    16    33    1
    35     9     1    1
    36     9     4    1
    37     7     1    1
    38     7     3    1
    39     1     6    1
    40    18    39    1
    41    18    41    1
    42    23     4    1
    43    23    54    1
    44    23    52    1
    45     4    22    1
    46    43    19    1
    47     3    19    1
    48     3    21    1
    49    44    19    1
    50    19    42    1
    51     6    10    1
    52    48    21    1
    53    28    11    1
    54    21    47    1
    55    21    46    1
    56    22    49    1
    57    22    51    1
    58    22    50    1
    59    10    11   ar
    60    10    15   ar
    61    11    12   ar
    62    32    15    1
    63    15    14   ar
    64    12    29    1
    65    12    13   ar
    66    14    13   ar
    67    14    31    1
    68    13    30    1
