@<TRIPOS>MOLECULE
1,2
 28 29 0 0 0
SMALL
GASTEIGER

@<TRIPOS>ATOM
      1 N           2.8053   12.2994    1.1522 N.ar    1  UNL1       -0.2579
      2 N           4.3667   12.6447    3.4419 N.pl3   1  UNL1       -0.2383
      3 C           3.1917   13.5526    1.6027 C.ar    1  UNL1        0.0656
      4 C           3.9673   13.6831    2.7616 C.3     1  UNL1        0.1100
      5 H           4.2501   14.6905    3.0791 H       1  UNL1        0.0606
      6 C           5.1461   12.8735    4.5951 C.ar    1  UNL1        0.0544
      7 C           2.0273   13.8799   -0.2731 C.ar    1  UNL1       -0.0419
      8 H           1.5265   14.3122   -1.1181 H       1  UNL1        0.0633
      9 C           7.1707   12.4034    3.2019 C.3     1  UNL1       -0.0379
     10 H           7.1539   13.2728    2.5433 H       1  UNL1        0.0278
     11 H           6.6100   11.6041    2.7054 H       1  UNL1        0.0278
     12 H           8.2067   12.0987    3.3342 H       1  UNL1        0.0278
     13 C           6.5359   12.7346    4.5184 C.ar    1  UNL1       -0.0276
     14 C           4.5277   13.1939    5.8088 C.ar    1  UNL1       -0.0276
     15 C           2.7118   14.5441    0.7255 C.ar    1  UNL1       -0.0370
     16 H           2.8607   15.6024    0.8285 H       1  UNL1        0.0637
     17 C           2.1141   12.5173    0.0311 C.ar    1  UNL1        0.0280
     18 H           1.6999   11.6978   -0.5321 H       1  UNL1        0.0829
     19 C           6.6918   13.2271    6.8705 C.ar    1  UNL1       -0.0611
     20 H           7.2934   13.3664    7.7565 H       1  UNL1        0.0618
     21 C           7.2950   12.9149    5.6646 C.ar    1  UNL1       -0.0570
     22 H           8.3699   12.8143    5.6104 H       1  UNL1        0.0621
     23 C           3.0361   13.3402    5.8772 C.3     1  UNL1       -0.0379
     24 H           2.7330   14.3216    5.5110 H       1  UNL1        0.0278
     25 H           2.6877   13.2401    6.9030 H       1  UNL1        0.0278
     26 H           2.5463   12.5906    5.2493 H       1  UNL1        0.0278
     27 C           5.3166   13.3617    6.9380 C.ar    1  UNL1       -0.0570
     28 H           4.8451   13.6053    7.8794 H       1  UNL1        0.0621
@<TRIPOS>BOND
     1     8     7    1
     2    18    17    1
     3     7    17   ar
     4     7    15   ar
     5    17     1   ar
     6    15    16    1
     7    15     3   ar
     8     1     3   ar
     9     3     4    1
    10    10     9    1
    11    11     9    1
    12     4     5    1
    13     4     2    1
    14     9    12    1
    15     9    13    1
    16     2     6    1
    17    13     6   ar
    18    13    21   ar
    19     6    14   ar
    20    26    23    1
    21    24    23    1
    22    22    21    1
    23    21    19   ar
    24    14    23    1
    25    14    27   ar
    26    23    25    1
    27    19    27   ar
    28    19    20    1
    29    27    28    1
