@<TRIPOS>MOLECULE
1,2
 31 32 0 0 0
SMALL
GASTEIGER

@<TRIPOS>ATOM
      1 N           8.1111   13.1939   11.6117 N.pl3   1  UNL1       -0.2437
      2 N           7.5155   10.6884   10.9689 N.pl3   1  UNL1       -0.2442
      3 C           8.4452   14.4052   12.0474 C.3     1  UNL1        0.0844
      4 H           9.1478   14.4384   12.8714 H       1  UNL1        0.0584
      5 C           7.9325   15.5677   11.5071 C.2     1  UNL1       -0.0600
      6 H           8.2350   16.5286   11.8918 H       1  UNL1        0.0592
      7 C           7.0242   15.4665   10.4593 C.2     1  UNL1       -0.0623
      8 H           6.6046   16.3521   10.0061 H       1  UNL1        0.0616
      9 C           6.6651   14.2096   10.0150 C.2     1  UNL1       -0.0418
     10 H           5.9588   14.0825    9.2084 H       1  UNL1        0.0634
     11 C           7.2313   13.0896   10.6220 C.2     1  UNL1        0.0449
     12 C           6.8615   11.7036   10.1876 C.3     1  UNL1        0.0709
     13 H           5.7631   11.6098   10.2377 H       1  UNL1        0.0544
     14 H           7.1137   11.6021    9.1112 H       1  UNL1        0.0544
     15 C           6.9264    9.4164   10.8190 C.ar    1  UNL1        0.0540
     16 C           7.5840    8.4166   10.0859 C.ar    1  UNL1       -0.0276
     17 C           6.9964    7.1665    9.9594 C.ar    1  UNL1       -0.0570
     18 H           7.5098    6.3995    9.3977 H       1  UNL1        0.0621
     19 C           5.7700    6.8937   10.5353 C.ar    1  UNL1       -0.0611
     20 H           5.3211    5.9182   10.4234 H       1  UNL1        0.0618
     21 C           5.1271    7.8737   11.2675 C.ar    1  UNL1       -0.0570
     22 H           4.1780    7.6604   11.7389 H       1  UNL1        0.0621
     23 C           5.6895    9.1323   11.4234 C.ar    1  UNL1       -0.0276
     24 C           8.9229    8.6749    9.4608 C.3     1  UNL1       -0.0379
     25 H           9.0698    9.7393    9.2695 H       1  UNL1        0.0278
     26 H           9.7054    8.3412   10.1441 H       1  UNL1        0.0278
     27 H           9.0206    8.1225    8.5277 H       1  UNL1        0.0278
     28 C           4.9943   10.1490   12.2872 C.3     1  UNL1       -0.0379
     29 H           5.7149   10.8577   12.7018 H       1  UNL1        0.0278
     30 H           4.2419   10.7033   11.7224 H       1  UNL1        0.0278
     31 H           4.4848    9.6494   13.1091 H       1  UNL1        0.0278
@<TRIPOS>BOND
     1    27    24    1
     2    14    12    1
     3    10     9    1
     4    25    24    1
     5    18    17    1
     6    24    16    1
     7    24    26    1
     8    17    16   ar
     9    17    19   ar
    10     8     7    1
    11     9     7    1
    12     9    11    2
    13    16    15   ar
    14    12    13    1
    15    12    11    1
    16    12     2    1
    17    20    19    1
    18     7     5    2
    19    19    21   ar
    20    11     1    1
    21    15     2    1
    22    15    23   ar
    23    21    23   ar
    24    21    22    1
    25    23    28    1
    26     5     6    1
    27     5     3    1
    28     1     3    1
    29    30    28    1
    30     3     4    1
    31    28    29    1
    32    28    31    1
