@<TRIPOS>MOLECULE
2,28
 50 49 0 0 0
SMALL
GASTEIGER

@<TRIPOS>ATOM
      1 SI          5.0855   -2.7377    0.2104 Si      1  UNL1        0.0000
      2 N           3.3740    0.1827    1.0896 N.3     1  UNL1        0.0000
      3 N           3.5280   -1.9568    0.0000 N.3     1  UNL1        0.0000
      4 C           3.5278   -0.5433   -0.0000 C.3     1  UNL1        0.0000
      5 C           2.0268    0.2083    3.1276 C.3     1  UNL1        0.0000
      6 H           1.8514   -0.3172    4.0639 H       1  UNL1        0.0000
      7 H           2.2146    1.2564    3.3456 H       1  UNL1        0.0000
      8 H           1.1351    0.1366    2.5111 H       1  UNL1        0.0000
      9 C           3.2270   -0.4011    2.3982 C.3     1  UNL1        0.0000
     10 H           3.0537   -1.4806    2.2825 H       1  UNL1        0.0000
     11 C           4.4999   -0.1977    3.2298 C.3     1  UNL1        0.0000
     12 H           4.3975   -0.6814    4.1992 H       1  UNL1        0.0000
     13 H           5.3596   -0.6159    2.7133 H       1  UNL1        0.0000
     14 H           4.6773    0.8633    3.3870 H       1  UNL1        0.0000
     15 C           6.4618   -1.4213    0.0951 C.3     1  UNL1        0.0000
     16 H           7.2618   -1.6250    0.8010 H       1  UNL1        0.0000
     17 H           6.9035   -1.4031   -0.8968 H       1  UNL1        0.0000
     18 H           6.0807   -0.4259    0.3008 H       1  UNL1        0.0000
     19 C           5.2079   -3.6463    1.8863 C.3     1  UNL1        0.0000
     20 H           6.2120   -4.0370    2.0222 H       1  UNL1        0.0000
     21 H           4.9886   -3.0055    2.7333 H       1  UNL1        0.0000
     22 H           4.5263   -4.4890    1.9287 H       1  UNL1        0.0000
     23 C           5.3550   -4.0452   -1.1515 C.3     1  UNL1        0.0000
     24 H           6.3755   -4.4125   -1.1138 H       1  UNL1        0.0000
     25 H           4.6999   -4.8986   -1.0124 H       1  UNL1        0.0000
     26 H           5.1839   -3.6543   -2.1492 H       1  UNL1        0.0000
     27 SI          1.9706   -2.7380   -0.2104 Si      1  UNL1        0.0000
     28 N           3.6816    0.1827   -1.0896 N.3     1  UNL1        0.0000
     29 C           5.0286    0.2083   -3.1278 C.3     1  UNL1        0.0000
     30 H           5.2039   -0.3172   -4.0641 H       1  UNL1        0.0000
     31 H           4.8407    1.2564   -3.3458 H       1  UNL1        0.0000
     32 H           5.9204    0.1366   -2.5114 H       1  UNL1        0.0000
     33 C           3.8285   -0.4011   -2.3983 C.3     1  UNL1        0.0000
     34 H           4.0019   -1.4806   -2.2825 H       1  UNL1        0.0000
     35 C           2.5555   -0.1978   -3.2297 C.3     1  UNL1        0.0000
     36 H           2.6578   -0.6815   -4.1991 H       1  UNL1        0.0000
     37 H           1.6959   -0.6160   -2.7132 H       1  UNL1        0.0000
     38 H           2.3780    0.8632   -3.3869 H       1  UNL1        0.0000
     39 C           0.5941   -1.4219   -0.0951 C.3     1  UNL1        0.0000
     40 H          -0.2060   -1.6257   -0.8010 H       1  UNL1        0.0000
     41 H           0.1523   -1.4038    0.8968 H       1  UNL1        0.0000
     42 H           0.9749   -0.4265   -0.3007 H       1  UNL1        0.0000
     43 C           1.8484   -3.6467   -1.8863 C.3     1  UNL1        0.0000
     44 H           0.8443   -4.0374   -2.0223 H       1  UNL1        0.0000
     45 H           2.0677   -3.0058   -2.7333 H       1  UNL1        0.0000
     46 H           2.5300   -4.4893   -1.9287 H       1  UNL1        0.0000
     47 C           1.7014   -4.0456    1.1515 C.3     1  UNL1        0.0000
     48 H           0.6809   -4.4130    1.1138 H       1  UNL1        0.0000
     49 H           2.3566   -4.8989    1.0124 H       1  UNL1        0.0000
     50 H           1.8724   -3.6547    2.1492 H       1  UNL1        0.0000
@<TRIPOS>BOND
     1    36    35    1
     2    30    29    1
     3    38    35    1
     4    31    29    1
     5    35    37    1
     6    35    33    1
     7    29    32    1
     8    29    33    1
     9    45    43    1
    10    33    34    1
    11    33    28    1
    12    26    23    1
    13    44    43    1
    14    46    43    1
    15    43    27    1
    16    23    24    1
    17    23    25    1
    18    23     1    1
    19    28     4    1
    20    17    15    1
    21    40    39    1
    22    42    39    1
    23    27    39    1
    24    27     3    1
    25    27    47    1
    26    39    41    1
    27     4     3    1
    28     4     2    1
    29     3     1    1
    30    15     1    1
    31    15    18    1
    32    15    16    1
    33     1    19    1
    34    49    47    1
    35     2     9    1
    36    48    47    1
    37    47    50    1
    38    19    22    1
    39    19    20    1
    40    19    21    1
    41    10     9    1
    42     9     5    1
    43     9    11    1
    44     8     5    1
    45    13    11    1
    46     5     7    1
    47     5     6    1
    48    11    14    1
    49    11    12    1
