@<TRIPOS>MOLECULE
1,2
 70 71 0 0 0
SMALL
GASTEIGER

@<TRIPOS>ATOM
      1 N           7.0634    7.8746    0.3316 N.pl3   1  UNL1       -0.2039
      2 N           6.6641    9.4882   -1.1731 N.pl3   1  UNL1       -0.2039
      3 N           8.6769    8.2688   -1.3835 N.3     1  UNL1       -0.2657
      4 C           7.8088    6.9920    1.1195 C.ar    1  UNL1        0.0586
      5 C           7.5556    5.6081    1.0310 C.ar    1  UNL1       -0.0218
      6 C           8.2421    4.7369    1.8597 C.ar    1  UNL1       -0.0565
      7 C           9.1802    5.2041    2.7624 C.ar    1  UNL1       -0.0611
      8 C           9.3932    6.5640    2.8838 C.ar    1  UNL1       -0.0565
      9 C           8.7011    7.4725    2.0962 C.ar    1  UNL1       -0.0218
     10 C           6.5040    5.0945    0.0719 C.3     1  UNL1       -0.0197
     11 C           5.2138    4.8046    0.8443 C.3     1  UNL1       -0.0586
     12 C           6.9508    3.8555   -0.7055 C.3     1  UNL1       -0.0586
     13 C           8.8553    8.9601    2.3191 C.3     1  UNL1       -0.0197
     14 C          10.0744    9.5175    1.5805 C.3     1  UNL1       -0.0586
     15 C           8.9541    9.3143    3.8047 C.3     1  UNL1       -0.0586
     16 C           7.4830    8.5224   -0.7479 C.3     1  UNL1        0.2487
     17 C           9.4053    7.0293   -1.2529 C.3     1  UNL1       -0.0094
     18 C           9.3628    9.2942   -2.1353 C.3     1  UNL1       -0.0094
     19 C           6.6109    9.9346   -2.4975 C.ar    1  UNL1        0.0586
     20 C           6.6571   11.3213   -2.7485 C.ar    1  UNL1       -0.0218
     21 C           6.5806   11.7880   -4.0495 C.ar    1  UNL1       -0.0565
     22 C           6.4523   10.9163   -5.1140 C.ar    1  UNL1       -0.0611
     23 C           6.3490    9.5618   -4.8667 C.ar    1  UNL1       -0.0565
     24 C           6.4107    9.0514   -3.5785 C.ar    1  UNL1       -0.0218
     25 C           6.7710   12.3067   -1.6068 C.3     1  UNL1       -0.0197
     26 C           8.0455   13.1484   -1.7058 C.3     1  UNL1       -0.0586
     27 C           5.5393   13.2148   -1.5643 C.3     1  UNL1       -0.0586
     28 C           6.1699    7.5718   -3.3743 C.3     1  UNL1       -0.0197
     29 C           4.7506    7.2085   -3.8238 C.3     1  UNL1       -0.0586
     30 C           7.1923    6.7087   -4.1164 C.3     1  UNL1       -0.0586
     31 H           8.0525    3.6758    1.7978 H       1  UNL1        0.0621
     32 H           9.7292    4.5111    3.3828 H       1  UNL1        0.0618
     33 H          10.1061    6.9212    3.6112 H       1  UNL1        0.0621
     34 H           6.2863    5.8921   -0.6465 H       1  UNL1        0.0344
     35 H           5.3892    4.0416    1.6014 H       1  UNL1        0.0235
     36 H           4.4390    4.4493    0.1677 H       1  UNL1        0.0235
     37 H           4.8638    5.7155    1.3274 H       1  UNL1        0.0235
     38 H           7.9217    4.0129   -1.1721 H       1  UNL1        0.0235
     39 H           6.2274    3.6298   -1.4868 H       1  UNL1        0.0235
     40 H           7.0225    2.9866   -0.0557 H       1  UNL1        0.0235
     41 H           7.9502    9.4438    1.9154 H       1  UNL1        0.0344
     42 H          10.1813   10.5817    1.7823 H       1  UNL1        0.0235
     43 H           9.9704    9.3812    0.5094 H       1  UNL1        0.0235
     44 H          10.9796    9.0100    1.9106 H       1  UNL1        0.0235
     45 H           8.1966    8.7871    4.3800 H       1  UNL1        0.0235
     46 H           8.8069   10.3836    3.9367 H       1  UNL1        0.0235
     47 H           9.9323    9.0575    4.2049 H       1  UNL1        0.0235
     48 H          10.1067    7.0402   -0.4100 H       1  UNL1        0.0392
     49 H           9.9725    6.8650   -2.1711 H       1  UNL1        0.0392
     50 H           8.7180    6.1997   -1.1232 H       1  UNL1        0.0392
     51 H           9.2381    9.1629   -3.2161 H       1  UNL1        0.0392
     52 H          10.4305    9.2563   -1.9006 H       1  UNL1        0.0392
     53 H           8.9819   10.2745   -1.8635 H       1  UNL1        0.0392
     54 H           6.6277   12.8503   -4.2391 H       1  UNL1        0.0621
     55 H           6.4118   11.2911   -6.1262 H       1  UNL1        0.0618
     56 H           6.2092    8.8858   -5.6977 H       1  UNL1        0.0621
     57 H           6.8014   11.7359   -0.6705 H       1  UNL1        0.0344
     58 H           8.9319   12.5171   -1.7151 H       1  UNL1        0.0235
     59 H           8.1161   13.8222   -0.8542 H       1  UNL1        0.0235
     60 H           8.0468   13.7459   -2.6146 H       1  UNL1        0.0235
     61 H           5.4974   13.8542   -2.4431 H       1  UNL1        0.0235
     62 H           5.5666   13.8478   -0.6793 H       1  UNL1        0.0235
     63 H           4.6337   12.6127   -1.5346 H       1  UNL1        0.0235
     64 H           6.2437    7.3505   -2.3058 H       1  UNL1        0.0344
     65 H           4.0206    7.8302   -3.3107 H       1  UNL1        0.0235
     66 H           4.5403    6.1645   -3.5968 H       1  UNL1        0.0235
     67 H           4.6343    7.3548   -4.8952 H       1  UNL1        0.0235
     68 H           7.0863    6.8229   -5.1928 H       1  UNL1        0.0235
     69 H           7.0457    5.6586   -3.8699 H       1  UNL1        0.0235
     70 H           8.2057    6.9880   -3.8430 H       1  UNL1        0.0235
@<TRIPOS>BOND
     1    55    22    1
     2    56    23    1
     3    68    30    1
     4    22    23   ar
     5    22    21   ar
     6    67    29    1
     7    23    24   ar
     8    54    21    1
     9    30    69    1
    10    30    70    1
    11    30    28    1
    12    21    20   ar
    13    29    66    1
    14    29    28    1
    15    29    65    1
    16    24    28    1
    17    24    19   ar
    18    28    64    1
    19    51    18    1
    20    20    19   ar
    21    20    25    1
    22    60    26    1
    23    19     2    1
    24    61    27    1
    25    49    17    1
    26    18    52    1
    27    18    53    1
    28    18     3    1
    29    58    26    1
    30    26    25    1
    31    26    59    1
    32    25    27    1
    33    25    57    1
    34    27    63    1
    35    27    62    1
    36    39    12    1
    37     3    17    1
    38     3    16    1
    39    17    50    1
    40    17    48    1
    41     2    16    1
    42    38    12    1
    43    16     1    1
    44    12    40    1
    45    12    10    1
    46    34    10    1
    47    10    11    1
    48    10     5    1
    49    36    11    1
    50     1     4    1
    51    43    14    1
    52    11    37    1
    53    11    35    1
    54     5     4   ar
    55     5     6   ar
    56     4     9   ar
    57    14    42    1
    58    14    44    1
    59    14    13    1
    60    31     6    1
    61     6     7   ar
    62    41    13    1
    63     9    13    1
    64     9     8   ar
    65    13    15    1
    66     7     8   ar
    67     7    32    1
    68     8    33    1
    69    15    46    1
    70    15    47    1
    71    15    45    1
