@<TRIPOS>MOLECULE
1,2
 72 73 0 0 0
SMALL
GASTEIGER

@<TRIPOS>ATOM
      1 N          11.7905    6.2165    8.5308 N.pl3   1  UNL1       -0.2192
      2 N          11.6317    6.2810   11.5506 N.pl3   1  UNL1       -0.2371
      3 C           9.5744    5.7229    7.5507 C.3     1  UNL1       -0.0248
      4 H           9.9670    6.1977    6.6550 H       1  UNL1        0.0290
      5 H           8.6195    6.1786    7.8059 H       1  UNL1        0.0290
      6 H           9.3906    4.6698    7.3405 H       1  UNL1        0.0290
      7 C          10.5426    5.8378    8.7095 C.2     1  UNL1        0.0264
      8 C           9.9820    5.5314    9.9602 C.2     1  UNL1       -0.0383
      9 H           8.9767    5.1350    9.9085 H       1  UNL1        0.0610
     10 C          10.4388    5.7799   11.2556 C.3     1  UNL1        0.0968
     11 C           9.4444    5.4532   12.3515 C.3     1  UNL1       -0.0359
     12 H           9.5057    4.3866   12.5695 H       1  UNL1        0.0255
     13 H           8.4256    5.6656   12.0362 H       1  UNL1        0.0255
     14 H           9.6575    6.0051   13.2636 H       1  UNL1        0.0255
     15 C          12.2100    6.6584    7.2462 C.ar    1  UNL1        0.0601
     16 C          12.6037    5.7611    6.2395 C.ar    1  UNL1       -0.0216
     17 C          12.9811    6.2643    5.0017 C.ar    1  UNL1       -0.0565
     18 H          13.2728    5.5814    4.2183 H       1  UNL1        0.0621
     19 C          12.9830    7.6208    4.7464 C.ar    1  UNL1       -0.0611
     20 H          13.2677    7.9908    3.7723 H       1  UNL1        0.0618
     21 C          12.6259    8.5023    5.7484 C.ar    1  UNL1       -0.0565
     22 H          12.6377    9.5617    5.5473 H       1  UNL1        0.0621
     23 C          12.2464    8.0430    6.9998 C.ar    1  UNL1       -0.0216
     24 C          11.8559    9.0160    8.0887 C.3     1  UNL1       -0.0197
     25 H          12.0794    8.5321    9.0501 H       1  UNL1        0.0344
     26 C          10.3524    9.3047    8.0389 C.3     1  UNL1       -0.0586
     27 H          10.0703    9.6722    7.0538 H       1  UNL1        0.0235
     28 H          10.0916   10.0604    8.7771 H       1  UNL1        0.0235
     29 H           9.7800    8.4063    8.2519 H       1  UNL1        0.0235
     30 C          12.6414   10.3259    8.0208 C.3     1  UNL1       -0.0586
     31 H          13.7007   10.1340    7.8678 H       1  UNL1        0.0235
     32 H          12.5266   10.8747    8.9531 H       1  UNL1        0.0235
     33 H          12.2787   10.9601    7.2149 H       1  UNL1        0.0235
     34 C          12.6328    4.2646    6.4532 C.3     1  UNL1       -0.0197
     35 H          12.3342    4.0566    7.4912 H       1  UNL1        0.0344
     36 C          11.6672    3.5530    5.4992 C.3     1  UNL1       -0.0586
     37 H          10.6740    3.9924    5.5404 H       1  UNL1        0.0235
     38 H          11.5895    2.4993    5.7599 H       1  UNL1        0.0235
     39 H          12.0242    3.6219    4.4745 H       1  UNL1        0.0235
     40 C          14.0489    3.7179    6.2512 C.3     1  UNL1       -0.0586
     41 H          14.4594    4.0302    5.2945 H       1  UNL1        0.0235
     42 H          14.0435    2.6311    6.2812 H       1  UNL1        0.0235
     43 H          14.7054    4.0811    7.0406 H       1  UNL1        0.0235
     44 C          11.8492    6.7863   12.8630 C.ar    1  UNL1        0.0557
     45 C          11.5636    8.1443   13.1081 C.ar    1  UNL1       -0.0219
     46 C          11.7697    8.6587   14.3789 C.ar    1  UNL1       -0.0565
     47 H          11.5329    9.6905   14.5841 H       1  UNL1        0.0621
     48 C          12.2649    7.8681   15.3982 C.ar    1  UNL1       -0.0611
     49 H          12.4188    8.2850   16.3824 H       1  UNL1        0.0618
     50 C          12.5506    6.5415   15.1520 C.ar    1  UNL1       -0.0565
     51 H          12.9259    5.9252   15.9548 H       1  UNL1        0.0621
     52 C          12.3420    5.9784   13.8998 C.ar    1  UNL1       -0.0219
     53 C          12.6158    4.5029   13.7128 C.3     1  UNL1       -0.0197
     54 H          12.3976    4.2355   12.6667 H       1  UNL1        0.0344
     55 C          11.7220    3.6684   14.6375 C.3     1  UNL1       -0.0586
     56 H          12.0202    3.7963   15.6754 H       1  UNL1        0.0235
     57 H          11.8067    2.6122   14.3889 H       1  UNL1        0.0235
     58 H          10.6786    3.9610   14.5484 H       1  UNL1        0.0235
     59 C          14.0872    4.1752   13.9759 C.3     1  UNL1       -0.0586
     60 H          14.7095    4.5983   13.1923 H       1  UNL1        0.0235
     61 H          14.2364    3.0978   13.9889 H       1  UNL1        0.0235
     62 H          14.4130    4.5711   14.9344 H       1  UNL1        0.0235
     63 C          11.0118    9.0270   12.0084 C.3     1  UNL1       -0.0197
     64 H          11.4179    8.6634   11.0563 H       1  UNL1        0.0344
     65 C          11.3948   10.4999   12.1719 C.3     1  UNL1       -0.0586
     66 H          10.7700   10.9829   12.9203 H       1  UNL1        0.0235
     67 H          11.2483   11.0247   11.2298 H       1  UNL1        0.0235
     68 H          12.4339   10.6120   12.4714 H       1  UNL1        0.0235
     69 C           9.4840    8.9220   11.9389 C.3     1  UNL1       -0.0586
     70 H           9.1768    7.9387   11.5996 H       1  UNL1        0.0235
     71 H           9.0925    9.6593   11.2408 H       1  UNL1        0.0235
     72 H           9.0475    9.1077   12.9188 H       1  UNL1        0.0235
@<TRIPOS>BOND
     1    20    19    1
     2    18    17    1
     3    39    36    1
     4    19    17   ar
     5    19    21   ar
     6    17    16   ar
     7    41    40    1
     8    36    37    1
     9    36    38    1
    10    36    34    1
    11    22    21    1
    12    21    23   ar
    13    16    34    1
    14    16    15   ar
    15    40    42    1
    16    40    34    1
    17    40    43    1
    18    34    35    1
    19     4     3    1
    20    23    15   ar
    21    23    24    1
    22    27    26    1
    23    33    30    1
    24    15     1    1
    25     6     3    1
    26     3     5    1
    27     3     7    1
    28    31    30    1
    29    30    24    1
    30    30    32    1
    31    26    24    1
    32    26    29    1
    33    26    28    1
    34    24    25    1
    35     1     7    1
    36     7     8    2
    37     9     8    1
    38     8    10    1
    39    64    63    1
    40    67    65    1
    41    71    69    1
    42    10     2    1
    43    10    11    1
    44     2    44    1
    45    70    69    1
    46    69    63    1
    47    69    72    1
    48    63    65    1
    49    63    45    1
    50    13    11    1
    51    65    68    1
    52    65    66    1
    53    11    12    1
    54    11    14    1
    55    54    53    1
    56    44    45   ar
    57    44    52   ar
    58    45    46   ar
    59    60    59    1
    60    53    52    1
    61    53    59    1
    62    53    55    1
    63    52    50   ar
    64    59    61    1
    65    59    62    1
    66    46    47    1
    67    46    48   ar
    68    57    55    1
    69    58    55    1
    70    55    56    1
    71    50    48   ar
    72    50    51    1
    73    48    49    1
