@<TRIPOS>MOLECULE
1,2
 72 73 0 0 0
SMALL
GASTEIGER

@<TRIPOS>ATOM
      1 N          10.7483    0.4093   13.8852 N.pl3   1  UNL1       -0.2371
      2 N           9.9815    1.9209   16.3454 N.pl3   1  UNL1       -0.2192
      3 C           9.4502   -1.6856   13.6769 C.3     1  UNL1       -0.0359
      4 H           9.7564   -1.6595   12.6341 H       1  UNL1        0.0255
      5 H           8.3693   -1.8033   13.7277 H       1  UNL1        0.0255
      6 H           9.8980   -2.5568   14.1530 H       1  UNL1        0.0255
      7 C           9.8805   -0.4355   14.4149 C.3     1  UNL1        0.0968
      8 C           9.2677   -0.2645   15.6608 C.2     1  UNL1       -0.0383
      9 H           8.6291   -1.0839   15.9614 H       1  UNL1        0.0610
     10 C           9.2749    0.8232   16.5398 C.2     1  UNL1        0.0264
     11 C           8.3849    0.6724   17.7543 C.3     1  UNL1       -0.0248
     12 H           8.8867    0.0310   18.4789 H       1  UNL1        0.0290
     13 H           7.4430    0.1955   17.4917 H       1  UNL1        0.0290
     14 H           8.1849    1.6343   18.2205 H       1  UNL1        0.0290
     15 C          11.2550    0.1788   12.5772 C.ar    1  UNL1        0.0557
     16 C          12.2884   -0.7448   12.3419 C.ar    1  UNL1       -0.0219
     17 C          12.8084   -0.8577   11.0602 C.ar    1  UNL1       -0.0565
     18 H          13.6135   -1.5523   10.8745 H       1  UNL1        0.0621
     19 C          12.3033   -0.1135   10.0141 C.ar    1  UNL1       -0.0611
     20 H          12.7150   -0.2200    9.0215 H       1  UNL1        0.0618
     21 C          11.2543    0.7574   10.2387 C.ar    1  UNL1       -0.0565
     22 H          10.8519    1.3127    9.4074 H       1  UNL1        0.0621
     23 C          10.7217    0.9243   11.5082 C.ar    1  UNL1       -0.0219
     24 C           9.5589    1.8663   11.7467 C.3     1  UNL1       -0.0197
     25 H           9.6928    2.3165   12.7434 H       1  UNL1        0.0344
     26 C           8.2354    1.0929   11.7595 C.3     1  UNL1       -0.0586
     27 H           8.1191    0.5289   10.8358 H       1  UNL1        0.0235
     28 H           7.3996    1.7846   11.8491 H       1  UNL1        0.0235
     29 H           8.1963    0.4036   12.5969 H       1  UNL1        0.0235
     30 C           9.4733    2.9919   10.7166 C.3     1  UNL1       -0.0586
     31 H          10.4281    3.5026   10.6144 H       1  UNL1        0.0235
     32 H           8.7188    3.7136   11.0252 H       1  UNL1        0.0235
     33 H           9.1725    2.6079    9.7444 H       1  UNL1        0.0235
     34 C          12.8274   -1.6442   13.4310 C.3     1  UNL1       -0.0197
     35 H          12.2582   -1.4539   14.3476 H       1  UNL1        0.0344
     36 C          14.2972   -1.3443   13.7282 C.3     1  UNL1       -0.0586
     37 H          14.9094   -1.4719   12.8387 H       1  UNL1        0.0235
     38 H          14.6646   -2.0240   14.4946 H       1  UNL1        0.0235
     39 H          14.4017   -0.3219   14.0874 H       1  UNL1        0.0235
     40 C          12.6682   -3.1204   13.0483 C.3     1  UNL1       -0.0586
     41 H          11.6530   -3.3407   12.7275 H       1  UNL1        0.0235
     42 H          12.9068   -3.7537   13.9007 H       1  UNL1        0.0235
     43 H          13.3421   -3.3822   12.2363 H       1  UNL1        0.0235
     44 C           9.7654    3.0715   17.1500 C.ar    1  UNL1        0.0601
     45 C           8.8593    4.0422   16.6807 C.ar    1  UNL1       -0.0216
     46 C           8.6848    5.2095   17.4078 C.ar    1  UNL1       -0.0565
     47 H           7.9876    5.9567   17.0637 H       1  UNL1        0.0621
     48 C           9.3879    5.4317   18.5763 C.ar    1  UNL1       -0.0611
     49 H           9.2462    6.3497   19.1275 H       1  UNL1        0.0618
     50 C          10.2576    4.4673   19.0443 C.ar    1  UNL1       -0.0565
     51 H          10.7840    4.6383   19.9712 H       1  UNL1        0.0621
     52 C          10.4562    3.2777   18.3565 C.ar    1  UNL1       -0.0216
     53 C          11.3579    2.2238   18.9624 C.3     1  UNL1       -0.0197
     54 H          11.4310    1.3798   18.2611 H       1  UNL1        0.0344
     55 C          12.7742    2.7466   19.2074 C.3     1  UNL1       -0.0586
     56 H          13.2635    2.9689   18.2596 H       1  UNL1        0.0235
     57 H          13.3613    1.9932   19.7282 H       1  UNL1        0.0235
     58 H          12.7672    3.6486   19.8133 H       1  UNL1        0.0235
     59 C          10.7664    1.7248   20.2867 C.3     1  UNL1       -0.0586
     60 H          10.8112    2.5069   21.0411 H       1  UNL1        0.0235
     61 H          11.3316    0.8690   20.6497 H       1  UNL1        0.0235
     62 H           9.7272    1.4287   20.1712 H       1  UNL1        0.0235
     63 C           8.0560    3.8001   15.4193 C.3     1  UNL1       -0.0197
     64 H           8.6272    3.1136   14.7784 H       1  UNL1        0.0344
     65 C           6.7226    3.1221   15.7538 C.3     1  UNL1       -0.0586
     66 H           6.8820    2.1281   16.1583 H       1  UNL1        0.0235
     67 H           6.1156    3.0312   14.8549 H       1  UNL1        0.0235
     68 H           6.1722    3.7116   16.4847 H       1  UNL1        0.0235
     69 C           7.7807    5.0855   14.6369 C.3     1  UNL1       -0.0586
     70 H           6.9927    5.6669   15.1103 H       1  UNL1        0.0235
     71 H           7.4463    4.8394   13.6307 H       1  UNL1        0.0235
     72 H           8.6743    5.7008   14.5679 H       1  UNL1        0.0235
@<TRIPOS>BOND
     1    20    19    1
     2    22    21    1
     3    33    30    1
     4    19    21   ar
     5    19    17   ar
     6    21    23   ar
     7    31    30    1
     8    30    32    1
     9    30    24    1
    10    27    26    1
    11    18    17    1
    12    17    16   ar
    13    23    24    1
    14    23    15   ar
    15    24    26    1
    16    24    25    1
    17    26    28    1
    18    26    29    1
    19    43    40    1
    20    16    15   ar
    21    16    34    1
    22    15     1    1
    23     4     3    1
    24    41    40    1
    25    37    36    1
    26    40    34    1
    27    40    42    1
    28    34    36    1
    29    34    35    1
    30    71    69    1
    31     3     5    1
    32     3     6    1
    33     3     7    1
    34    36    39    1
    35    36    38    1
    36     1     7    1
    37     7     8    1
    38    72    69    1
    39    69    70    1
    40    69    63    1
    41    64    63    1
    42    67    65    1
    43    63    65    1
    44    63    45    1
    45     8     9    1
    46     8    10    2
    47    65    66    1
    48    65    68    1
    49     2    10    1
    50     2    44    1
    51    10    11    1
    52    45    44   ar
    53    45    46   ar
    54    47    46    1
    55    44    52   ar
    56    46    48   ar
    57    13    11    1
    58    11    14    1
    59    11    12    1
    60    56    55    1
    61    54    53    1
    62    52    53    1
    63    52    50   ar
    64    48    50   ar
    65    48    49    1
    66    53    55    1
    67    53    59    1
    68    50    51    1
    69    55    57    1
    70    55    58    1
    71    62    59    1
    72    59    61    1
    73    59    60    1
