@<TRIPOS>MOLECULE
1,2
 72 73 0 0 0
SMALL
GASTEIGER

@<TRIPOS>ATOM
      1 N           9.4016    5.3485   26.3421 N.pl3   1  UNL1       -0.2192
      2 N          11.8897    6.3879   25.1505 N.pl3   1  UNL1       -0.2371
      3 C          13.2317    6.3872   24.6958 C.ar    1  UNL1        0.0557
      4 C           9.1177    6.6380   26.3860 C.2     1  UNL1        0.0264
      5 C           9.9878    7.6362   25.9381 C.2     1  UNL1       -0.0383
      6 H           9.6276    8.6490   26.0577 H       1  UNL1        0.0610
      7 C          14.2453    6.0091   25.5991 C.ar    1  UNL1       -0.0219
      8 C           7.0111    4.2792   25.0455 C.3     1  UNL1       -0.0197
      9 H           7.5865    5.1620   24.7400 H       1  UNL1        0.0344
     10 C          11.2853    7.5324   25.4244 C.3     1  UNL1        0.0968
     11 C           7.4123    3.9020   26.4539 C.ar    1  UNL1       -0.0216
     12 C           7.8110    7.1198   26.9810 C.3     1  UNL1       -0.0248
     13 H           7.0781    7.2292   26.1817 H       1  UNL1        0.0290
     14 H           7.9321    8.0889   27.4588 H       1  UNL1        0.0290
     15 H           7.4188    6.4074   27.7034 H       1  UNL1        0.0290
     16 C          14.8877    6.6888   22.9769 C.ar    1  UNL1       -0.0565
     17 H          15.1502    6.9531   21.9636 H       1  UNL1        0.0621
     18 C           8.1441    3.1783   29.0422 C.ar    1  UNL1       -0.0565
     19 H           8.4060    2.8989   30.0510 H       1  UNL1        0.0621
     20 C          10.2279    4.6103   28.9340 C.3     1  UNL1       -0.0197
     21 H          10.9033    4.8454   28.0983 H       1  UNL1        0.0344
     22 C          12.5078    7.1721   22.3735 C.3     1  UNL1       -0.0197
     23 H          11.5329    7.2150   22.8736 H       1  UNL1        0.0344
     24 C           6.6494    3.0017   27.1830 C.ar    1  UNL1       -0.0565
     25 H           5.7612    2.5747   26.7434 H       1  UNL1        0.0621
     26 C           7.3790    3.1354   24.0965 C.3     1  UNL1       -0.0586
     27 H           8.4646    2.9883   24.1026 H       1  UNL1        0.0235
     28 H           7.0679    3.3675   23.0798 H       1  UNL1        0.0235
     29 H           6.9030    2.2074   24.4089 H       1  UNL1        0.0235
     30 C          10.9330    3.6228   29.8641 C.3     1  UNL1       -0.0586
     31 H          11.9254    3.9950   30.1116 H       1  UNL1        0.0235
     32 H          11.0409    2.6493   29.3910 H       1  UNL1        0.0235
     33 H          10.3864    3.4999   30.7963 H       1  UNL1        0.0235
     34 C           9.9371    5.9115   29.6886 C.3     1  UNL1       -0.0586
     35 H           9.1751    5.7465   30.4484 H       1  UNL1        0.0235
     36 H           9.5894    6.6816   29.0066 H       1  UNL1        0.0235
     37 H          10.8403    6.2710   30.1777 H       1  UNL1        0.0235
     38 C          12.8213    8.5519   21.7855 C.3     1  UNL1       -0.0586
     39 H          13.6956    8.5069   21.1402 H       1  UNL1        0.0235
     40 H          13.0170    9.2811   22.5675 H       1  UNL1        0.0235
     41 H          11.9809    8.9008   21.1888 H       1  UNL1        0.0235
     42 C          12.4037    6.1418   21.2467 C.3     1  UNL1       -0.0586
     43 H          11.6208    6.4282   20.5473 H       1  UNL1        0.0235
     44 H          12.1562    5.1662   21.6598 H       1  UNL1        0.0235
     45 H          13.3424    6.0634   20.7021 H       1  UNL1        0.0235
     46 C           8.9578    4.0485   28.3330 C.ar    1  UNL1       -0.0216
     47 C           8.5761    4.4296   27.0336 C.ar    1  UNL1        0.0601
     48 C          13.8785    5.6642   27.0284 C.3     1  UNL1       -0.0197
     49 H          12.9761    5.0308   26.9788 H       1  UNL1        0.0344
     50 C          13.5587    6.7448   23.3757 C.ar    1  UNL1       -0.0219
     51 C          15.5594    5.9800   25.1587 C.ar    1  UNL1       -0.0565
     52 H          16.3512    5.6992   25.8336 H       1  UNL1        0.0621
     53 C          15.8829    6.3130   23.8563 C.ar    1  UNL1       -0.0611
     54 H          16.9119    6.2821   23.5303 H       1  UNL1        0.0618
     55 C           5.5231    4.6183   24.9347 C.3     1  UNL1       -0.0586
     56 H           4.9073    3.7307   25.0558 H       1  UNL1        0.0235
     57 H           5.3104    5.0411   23.9548 H       1  UNL1        0.0235
     58 H           5.2347    5.3425   25.6938 H       1  UNL1        0.0235
     59 C          11.9988    8.8585   25.2560 C.3     1  UNL1       -0.0359
     60 H          13.0638    8.7206   25.0877 H       1  UNL1        0.0255
     61 H          11.8578    9.4753   26.1417 H       1  UNL1        0.0255
     62 H          11.5732    9.3945   24.4093 H       1  UNL1        0.0255
     63 C           6.9964    2.6570   28.4748 C.ar    1  UNL1       -0.0611
     64 H           6.3736    1.9790   29.0394 H       1  UNL1        0.0618
     65 C          14.9747    4.9073   27.7782 C.3     1  UNL1       -0.0586
     66 H          15.3042    4.0284   27.2298 H       1  UNL1        0.0235
     67 H          14.5982    4.5829   28.7468 H       1  UNL1        0.0235
     68 H          15.8316    5.5526   27.9607 H       1  UNL1        0.0235
     69 C          13.5305    6.9281   27.8253 C.3     1  UNL1       -0.0586
     70 H          14.3428    7.6497   27.7578 H       1  UNL1        0.0235
     71 H          13.3819    6.6755   28.8735 H       1  UNL1        0.0235
     72 H          12.6194    7.3873   27.4567 H       1  UNL1        0.0235
@<TRIPOS>BOND
     1    43    42    1
     2    45    42    1
     3    39    38    1
     4    41    38    1
     5    42    44    1
     6    42    22    1
     7    38    22    1
     8    38    40    1
     9    17    16    1
    10    22    23    1
    11    22    50    1
    12    16    50   ar
    13    16    53   ar
    14    28    26    1
    15    50     3   ar
    16    54    53    1
    17    53    51   ar
    18    57    55    1
    19    26    27    1
    20    26    29    1
    21    26     8    1
    22    62    59    1
    23     3     2    1
    24     3     7   ar
    25     9     8    1
    26    55     8    1
    27    55    56    1
    28    55    58    1
    29     8    11    1
    30    60    59    1
    31     2    10    1
    32    51     7   ar
    33    51    52    1
    34    59    10    1
    35    59    61    1
    36    10     5    1
    37     7    48    1
    38     5     6    1
    39     5     4    2
    40    13    12    1
    41     1     4    1
    42     1    47    1
    43     4    12    1
    44    11    47   ar
    45    11    24   ar
    46    25    24    1
    47    49    48    1
    48    12    14    1
    49    12    15    1
    50    48    65    1
    51    48    69    1
    52    47    46   ar
    53    24    63   ar
    54    66    65    1
    55    72    69    1
    56    70    69    1
    57    65    68    1
    58    65    67    1
    59    69    71    1
    60    21    20    1
    61    46    20    1
    62    46    18   ar
    63    63    64    1
    64    63    18   ar
    65    20    34    1
    66    20    30    1
    67    36    34    1
    68    18    19    1
    69    32    30    1
    70    34    37    1
    71    34    35    1
    72    30    31    1
    73    30    33    1
