@<TRIPOS>MOLECULE
1,2
 72 73 0 0 0
SMALL
GASTEIGER

@<TRIPOS>ATOM
      1 N          11.6652    5.1605    4.9475 N.pl3   1  UNL1       -0.2192
      2 N          12.7890    4.0007    7.4653 N.pl3   1  UNL1       -0.2371
      3 C          10.9087    3.4035    3.3838 C.3     1  UNL1       -0.0248
      4 H          10.3452    4.2030    2.9093 H       1  UNL1        0.0290
      5 H          10.2377    2.5743    3.6005 H       1  UNL1        0.0290
      6 H          11.6645    3.0424    2.6877 H       1  UNL1        0.0290
      7 C          11.5858    3.8801    4.6506 C.2     1  UNL1        0.0264
      8 C          12.0740    2.8550    5.4712 C.2     1  UNL1       -0.0383
      9 H          11.9701    1.8619    5.0558 H       1  UNL1        0.0610
     10 C          12.5872    2.8919    6.7685 C.3     1  UNL1        0.0968
     11 C          12.8853    1.5328    7.3667 C.3     1  UNL1       -0.0359
     12 H          13.8461    1.1853    6.9881 H       1  UNL1        0.0255
     13 H          12.1310    0.8067    7.0719 H       1  UNL1        0.0255
     14 H          12.9356    1.5726    8.4518 H       1  UNL1        0.0255
     15 C          11.0511    6.1266    4.1109 C.ar    1  UNL1        0.0601
     16 C          11.6567    6.5727    2.9236 C.ar    1  UNL1       -0.0216
     17 C          11.0048    7.5353    2.1651 C.ar    1  UNL1       -0.0565
     18 H          11.4569    7.8847    1.2492 H       1  UNL1        0.0621
     19 C           9.7853    8.0529    2.5547 C.ar    1  UNL1       -0.0611
     20 H           9.2905    8.7948    1.9448 H       1  UNL1        0.0618
     21 C           9.2012    7.6222    3.7312 C.ar    1  UNL1       -0.0565
     22 H           8.2507    8.0357    4.0282 H       1  UNL1        0.0621
     23 C           9.8194    6.6678    4.5236 C.ar    1  UNL1       -0.0216
     24 C           9.1843    6.1859    5.8102 C.3     1  UNL1       -0.0197
     25 H          10.0026    5.9422    6.5079 H       1  UNL1        0.0344
     26 C           8.3784    4.9052    5.5672 C.3     1  UNL1       -0.0586
     27 H           7.6322    5.0706    4.7921 H       1  UNL1        0.0235
     28 H           7.8675    4.6063    6.4806 H       1  UNL1        0.0235
     29 H           9.0282    4.0920    5.2576 H       1  UNL1        0.0235
     30 C           8.2912    7.2377    6.4672 C.3     1  UNL1       -0.0586
     31 H           8.7850    8.2058    6.4945 H       1  UNL1        0.0235
     32 H           8.0629    6.9419    7.4893 H       1  UNL1        0.0235
     33 H           7.3489    7.3374    5.9328 H       1  UNL1        0.0235
     34 C          12.9943    6.0467    2.4510 C.3     1  UNL1       -0.0197
     35 H          13.3589    5.3042    3.1746 H       1  UNL1        0.0344
     36 C          14.0263    7.1753    2.3833 C.3     1  UNL1       -0.0586
     37 H          13.6972    7.9712    1.7199 H       1  UNL1        0.0235
     38 H          14.9736    6.7896    2.0126 H       1  UNL1        0.0235
     39 H          14.1882    7.5981    3.3751 H       1  UNL1        0.0235
     40 C          12.8720    5.3834    1.0747 C.3     1  UNL1       -0.0586
     41 H          12.0748    4.6450    1.0597 H       1  UNL1        0.0235
     42 H          13.8061    4.8895    0.8153 H       1  UNL1        0.0235
     43 H          12.6579    6.1258    0.3095 H       1  UNL1        0.0235
     44 C          13.1384    3.8862    8.8380 C.ar    1  UNL1        0.0557
     45 C          12.1136    4.0028    9.7963 C.ar    1  UNL1       -0.0219
     46 C          12.4339    3.8898   11.1405 C.ar    1  UNL1       -0.0565
     47 H          11.6581    3.9534   11.8864 H       1  UNL1        0.0621
     48 C          13.7394    3.6882   11.5470 C.ar    1  UNL1       -0.0611
     49 H          13.9717    3.6047   12.5982 H       1  UNL1        0.0618
     50 C          14.7424    3.5914   10.6041 C.ar    1  UNL1       -0.0565
     51 H          15.7594    3.4346   10.9297 H       1  UNL1        0.0621
     52 C          14.4652    3.6732    9.2463 C.ar    1  UNL1       -0.0219
     53 C          15.5994    3.5376    8.2551 C.3     1  UNL1       -0.0197
     54 H          15.1882    3.5566    7.2362 H       1  UNL1        0.0344
     55 C          16.5603    4.7216    8.3885 C.3     1  UNL1       -0.0586
     56 H          16.0486    5.6460    8.1224 H       1  UNL1        0.0235
     57 H          17.4081    4.5891    7.7197 H       1  UNL1        0.0235
     58 H          16.9350    4.8071    9.4058 H       1  UNL1        0.0235
     59 C          16.3566    2.2206    8.4521 C.3     1  UNL1       -0.0586
     60 H          16.9180    2.2312    9.3831 H       1  UNL1        0.0235
     61 H          17.0599    2.0718    7.6355 H       1  UNL1        0.0235
     62 H          15.6739    1.3745    8.4789 H       1  UNL1        0.0235
     63 C          10.6828    4.2284    9.3532 C.3     1  UNL1       -0.0197
     64 H          10.7089    4.8534    8.4472 H       1  UNL1        0.0344
     65 C          10.0107    2.9018    8.9827 C.3     1  UNL1       -0.0586
     66 H          10.4743    2.4640    8.1043 H       1  UNL1        0.0235
     67 H           8.9571    3.0668    8.7652 H       1  UNL1        0.0235
     68 H          10.0872    2.1962    9.8082 H       1  UNL1        0.0235
     69 C           9.8374    4.9407   10.4102 C.3     1  UNL1       -0.0586
     70 H           9.5539    4.2554   11.2063 H       1  UNL1        0.0235
     71 H           8.9216    5.3175    9.9578 H       1  UNL1        0.0235
     72 H          10.3810    5.7735   10.8515 H       1  UNL1        0.0235
@<TRIPOS>BOND
     1    43    40    1
     2    42    40    1
     3    41    40    1
     4    40    34    1
     5    18    17    1
     6    37    36    1
     7    20    19    1
     8    38    36    1
     9    17    19   ar
    10    17    16   ar
    11    36    34    1
    12    36    39    1
    13    34    16    1
    14    34    35    1
    15    19    21   ar
    16     6     3    1
    17     4     3    1
    18    16    15   ar
    19     3     5    1
    20     3     7    1
    21    21    22    1
    22    21    23   ar
    23    15    23   ar
    24    15     1    1
    25    23    24    1
    26     7     1    1
    27     7     8    2
    28    27    26    1
    29     9     8    1
    30    29    26    1
    31     8    10    1
    32    26    24    1
    33    26    28    1
    34    24    30    1
    35    24    25    1
    36    33    30    1
    37    30    31    1
    38    30    32    1
    39    10    11    1
    40    10     2    1
    41    12    11    1
    42    13    11    1
    43    54    53    1
    44    11    14    1
    45     2    44    1
    46    61    59    1
    47    57    55    1
    48    66    65    1
    49    56    55    1
    50    53    55    1
    51    53    59    1
    52    53    52    1
    53    55    58    1
    54    64    63    1
    55    59    62    1
    56    59    60    1
    57    67    65    1
    58    44    52   ar
    59    44    45   ar
    60    65    63    1
    61    65    68    1
    62    52    50   ar
    63    63    45    1
    64    63    69    1
    65    45    46   ar
    66    71    69    1
    67    69    72    1
    68    69    70    1
    69    50    51    1
    70    50    48   ar
    71    46    48   ar
    72    46    47    1
    73    48    49    1
