@<TRIPOS>MOLECULE
1,2
 72 73 0 0 0
SMALL
GASTEIGER

@<TRIPOS>ATOM
      1 N           2.9568    4.0336    9.1277 N.pl3   1  UNL1       -0.2192
      2 N           1.6600    6.6392    8.7408 N.pl3   1  UNL1       -0.2371
      3 C           3.8963    3.1405    7.0133 C.3     1  UNL1       -0.0248
      4 H           4.4464    2.4611    7.6589 H       1  UNL1        0.0290
      5 H           4.5994    3.6723    6.3747 H       1  UNL1        0.0290
      6 H           3.2429    2.5617    6.3609 H       1  UNL1        0.0290
      7 C           3.0646    4.1245    7.8113 C.2     1  UNL1        0.0264
      8 C           2.4592    5.1313    7.0486 C.2     1  UNL1       -0.0383
      9 H           2.5480    5.0153    5.9766 H       1  UNL1        0.0610
     10 C           1.8596    6.3227    7.4701 C.3     1  UNL1        0.0968
     11 C           1.4614    7.2680    6.3555 C.3     1  UNL1       -0.0359
     12 H           0.6868    6.7961    5.7511 H       1  UNL1        0.0255
     13 H           2.3081    7.4674    5.7026 H       1  UNL1        0.0255
     14 H           1.0776    8.2070    6.7464 H       1  UNL1        0.0255
     15 C           3.8129    3.1298    9.8191 C.ar    1  UNL1        0.0601
     16 C           3.4023    1.8226   10.1231 C.ar    1  UNL1       -0.0216
     17 C           4.3106    0.9523   10.7108 C.ar    1  UNL1       -0.0565
     18 H           4.0136   -0.0606   10.9337 H       1  UNL1        0.0621
     19 C           5.6006    1.3523   10.9957 C.ar    1  UNL1       -0.0611
     20 H           6.3032    0.6516   11.4229 H       1  UNL1        0.0618
     21 C           5.9821    2.6566   10.7466 C.ar    1  UNL1       -0.0565
     22 H           6.9831    2.9726   10.9959 H       1  UNL1        0.0621
     23 C           5.1006    3.5635   10.1789 C.ar    1  UNL1       -0.0216
     24 C           5.5331    4.9958    9.9614 C.3     1  UNL1       -0.0197
     25 H           4.6409    5.5853    9.7139 H       1  UNL1        0.0344
     26 C           6.1551    5.5733   11.2355 C.3     1  UNL1       -0.0586
     27 H           5.5113    5.3923   12.0924 H       1  UNL1        0.0235
     28 H           6.3026    6.6457   11.1310 H       1  UNL1        0.0235
     29 H           7.1231    5.1233   11.4393 H       1  UNL1        0.0235
     30 C           6.5220    5.1027    8.7978 C.3     1  UNL1       -0.0586
     31 H           7.3941    4.4786    8.9806 H       1  UNL1        0.0235
     32 H           6.8544    6.1321    8.6818 H       1  UNL1        0.0235
     33 H           6.0596    4.7843    7.8678 H       1  UNL1        0.0235
     34 C           2.0048    1.3358    9.8071 C.3     1  UNL1       -0.0197
     35 H           1.3823    2.2035    9.5068 H       1  UNL1        0.0344
     36 C           1.3661    0.6990   11.0427 C.3     1  UNL1       -0.0586
     37 H           1.8881   -0.2082   11.3364 H       1  UNL1        0.0235
     38 H           0.3301    0.4338   10.8386 H       1  UNL1        0.0235
     39 H           1.4017    1.3959   11.8774 H       1  UNL1        0.0235
     40 C           2.0367    0.3236    8.6575 C.3     1  UNL1       -0.0586
     41 H           2.4620    0.7631    7.7594 H       1  UNL1        0.0235
     42 H           1.0312   -0.0221    8.4279 H       1  UNL1        0.0235
     43 H           2.6408   -0.5387    8.9331 H       1  UNL1        0.0235
     44 C           1.4333    7.9825    9.1121 C.ar    1  UNL1        0.0557
     45 C           2.4681    8.9325    8.9839 C.ar    1  UNL1       -0.0219
     46 C           2.2447   10.2372    9.4004 C.ar    1  UNL1       -0.0565
     47 H           3.0327   10.9676    9.2993 H       1  UNL1        0.0621
     48 C           1.0325   10.6252    9.9324 C.ar    1  UNL1       -0.0611
     49 H           0.8728   11.6478   10.2393 H       1  UNL1        0.0618
     50 C           0.0228    9.6919   10.0700 C.ar    1  UNL1       -0.0565
     51 H          -0.9213   10.0068   10.4840 H       1  UNL1        0.0621
     52 C           0.2022    8.3730    9.6774 C.ar    1  UNL1       -0.0219
     53 C          -0.9375    7.3830    9.8035 C.3     1  UNL1       -0.0197
     54 H          -0.5093    6.3702    9.9911 H       1  UNL1        0.0344
     55 C          -1.7137    7.3295    8.4816 C.3     1  UNL1       -0.0586
     56 H          -2.0861    8.3208    8.2254 H       1  UNL1        0.0235
     57 H          -2.5598    6.6509    8.5678 H       1  UNL1        0.0235
     58 H          -1.0749    6.9755    7.6768 H       1  UNL1        0.0235
     59 C          -1.8992    7.7118   10.9472 C.3     1  UNL1       -0.0586
     60 H          -1.3566    7.8982   11.8714 H       1  UNL1        0.0235
     61 H          -2.5792    6.8780   11.1047 H       1  UNL1        0.0235
     62 H          -2.5031    8.5859   10.7112 H       1  UNL1        0.0235
     63 C           3.8329    8.5837    8.4292 C.3     1  UNL1       -0.0197
     64 H           3.8470    7.5241    8.1566 H       1  UNL1        0.0344
     65 C           4.1570    9.4121    7.1816 C.3     1  UNL1       -0.0586
     66 H           3.3560    9.3555    6.4507 H       1  UNL1        0.0235
     67 H           5.0729    9.0481    6.7210 H       1  UNL1        0.0235
     68 H           4.3017   10.4580    7.4411 H       1  UNL1        0.0235
     69 C           4.9185    8.8180    9.4840 C.3     1  UNL1       -0.0586
     70 H           4.9880    9.8715    9.7438 H       1  UNL1        0.0235
     71 H           5.8849    8.4991    9.0991 H       1  UNL1        0.0235
     72 H           4.7040    8.2600   10.3917 H       1  UNL1        0.0235
@<TRIPOS>BOND
     1    13    11    1
     2    12    11    1
     3     9     8    1
     4    11    14    1
     5    11    10    1
     6     6     3    1
     7     5     3    1
     8    66    65    1
     9    67    65    1
    10     3     4    1
    11     3     7    1
    12     8    10    1
    13     8     7    2
    14    65    68    1
    15    65    63    1
    16    10     2    1
    17    58    55    1
    18    41    40    1
    19     7     1    1
    20    33    30    1
    21    64    63    1
    22    56    55    1
    23    42    40    1
    24    63    45    1
    25    63    69    1
    26    55    57    1
    27    55    53    1
    28    40    43    1
    29    40    34    1
    30    32    30    1
    31     2    44    1
    32    30    31    1
    33    30    24    1
    34    45    44   ar
    35    45    46   ar
    36    71    69    1
    37    44    52   ar
    38     1    15    1
    39    47    46    1
    40    46    48   ar
    41    69    70    1
    42    69    72    1
    43    35    34    1
    44    52    53    1
    45    52    50   ar
    46    25    24    1
    47    53    54    1
    48    53    59    1
    49    34    16    1
    50    34    36    1
    51    15    16   ar
    52    15    23   ar
    53    48    50   ar
    54    48    49    1
    55    24    23    1
    56    24    26    1
    57    50    51    1
    58    16    17   ar
    59    23    21   ar
    60    17    18    1
    61    17    19   ar
    62    62    59    1
    63    21    19   ar
    64    21    22    1
    65    38    36    1
    66    59    61    1
    67    59    60    1
    68    19    20    1
    69    36    37    1
    70    36    39    1
    71    28    26    1
    72    26    29    1
    73    26    27    1
