@<TRIPOS>MOLECULE
1,2
 72 73 0 0 0
SMALL
GASTEIGER

@<TRIPOS>ATOM
      1 N           2.1452    3.2848   15.8325 N.pl3   1  UNL1       -0.2192
      2 N           1.7678    6.0640   14.8028 N.pl3   1  UNL1       -0.2371
      3 C           0.0722    2.4172   16.8658 C.3     1  UNL1       -0.0248
      4 H           0.6630    1.5263   17.0633 H       1  UNL1        0.0290
      5 H          -0.8164    2.1401   16.3008 H       1  UNL1        0.0290
      6 H          -0.2582    2.8360   17.8152 H       1  UNL1        0.0290
      7 C           0.8576    3.4535   16.0890 C.2     1  UNL1        0.0264
      8 C           0.1139    4.5819   15.7247 C.2     1  UNL1       -0.0383
      9 H          -0.9387    4.5253   15.9656 H       1  UNL1        0.0610
     10 C           0.5346    5.8119   15.2127 C.3     1  UNL1        0.0968
     11 C          -0.5306    6.8875   15.1826 C.3     1  UNL1       -0.0359
     12 H          -0.0950    7.8827   15.1348 H       1  UNL1        0.0255
     13 H          -1.1714    6.8190   16.0587 H       1  UNL1        0.0255
     14 H          -1.1557    6.7411   14.3019 H       1  UNL1        0.0255
     15 C           2.8415    2.2614   16.5229 C.ar    1  UNL1        0.0601
     16 C           3.1703    2.4459   17.8777 C.ar    1  UNL1       -0.0216
     17 C           3.8733    1.4539   18.5449 C.ar    1  UNL1       -0.0565
     18 H           4.1380    1.5949   19.5818 H       1  UNL1        0.0621
     19 C           4.2362    0.2850   17.9072 C.ar    1  UNL1       -0.0611
     20 H           4.7686   -0.4860   18.4447 H       1  UNL1        0.0618
     21 C           3.9248    0.1099   16.5718 C.ar    1  UNL1       -0.0565
     22 H           4.2209   -0.8035   16.0815 H       1  UNL1        0.0621
     23 C           3.2429    1.0856   15.8606 C.ar    1  UNL1       -0.0216
     24 C           2.9253    0.8947   14.3938 C.3     1  UNL1       -0.0197
     25 H           3.0048    1.8904   13.9131 H       1  UNL1        0.0344
     26 C           1.4917    0.3862   14.2071 C.3     1  UNL1       -0.0586
     27 H           1.3436   -0.5354   14.7675 H       1  UNL1        0.0235
     28 H           1.3017    0.1845   13.1541 H       1  UNL1        0.0235
     29 H           0.7706    1.1231   14.5485 H       1  UNL1        0.0235
     30 C           3.8991   -0.0415   13.6777 C.3     1  UNL1       -0.0586
     31 H           3.7593    0.0420   12.6017 H       1  UNL1        0.0235
     32 H           3.7233   -1.0780   13.9570 H       1  UNL1        0.0235
     33 H           4.9294    0.2201   13.9074 H       1  UNL1        0.0235
     34 C           2.8264    3.7238   18.6096 C.3     1  UNL1       -0.0197
     35 H           2.1969    4.3464   17.9656 H       1  UNL1        0.0344
     36 C           2.0582    3.4519   19.9051 C.3     1  UNL1       -0.0586
     37 H           1.2013    2.8087   19.7193 H       1  UNL1        0.0235
     38 H           1.7018    4.3882   20.3302 H       1  UNL1        0.0235
     39 H           2.6933    2.9671   20.6423 H       1  UNL1        0.0235
     40 C           4.1116    4.5007   18.9039 C.3     1  UNL1       -0.0586
     41 H           4.7888    3.9153   19.5219 H       1  UNL1        0.0235
     42 H           3.8811    5.4261   19.4277 H       1  UNL1        0.0235
     43 H           4.6271    4.7380   17.9746 H       1  UNL1        0.0235
     44 C           2.1295    7.4049   14.5080 C.ar    1  UNL1        0.0557
     45 C           1.8587    7.9859   13.2586 C.ar    1  UNL1       -0.0219
     46 C           2.2165    9.3086   13.0382 C.ar    1  UNL1       -0.0565
     47 H           2.0158    9.7617   12.0792 H       1  UNL1        0.0621
     48 C           2.8133   10.0621   14.0298 C.ar    1  UNL1       -0.0611
     49 H           3.0670   11.0958   13.8479 H       1  UNL1        0.0618
     50 C           3.0926    9.4831   15.2528 C.ar    1  UNL1       -0.0565
     51 H           3.5633   10.0763   16.0210 H       1  UNL1        0.0621
     52 C           2.7712    8.1585   15.5069 C.ar    1  UNL1       -0.0219
     53 C           3.0864    7.5368   16.8497 C.3     1  UNL1       -0.0197
     54 H           3.1039    6.4449   16.7207 H       1  UNL1        0.0344
     55 C           1.9868    7.8721   17.8613 C.3     1  UNL1       -0.0586
     56 H           1.8802    8.9506   17.9638 H       1  UNL1        0.0235
     57 H           2.2319    7.4542   18.8355 H       1  UNL1        0.0235
     58 H           1.0340    7.4592   17.5399 H       1  UNL1        0.0235
     59 C           4.4519    7.9805   17.3788 C.3     1  UNL1       -0.0586
     60 H           5.2030    7.9215   16.5942 H       1  UNL1        0.0235
     61 H           4.7635    7.3385   18.1993 H       1  UNL1        0.0235
     62 H           4.4181    9.0028   17.7482 H       1  UNL1        0.0235
     63 C           1.2302    7.1886   12.1384 C.3     1  UNL1       -0.0197
     64 H           0.9171    6.2144   12.5339 H       1  UNL1        0.0344
     65 C           2.2797    6.9449   11.0501 C.3     1  UNL1       -0.0586
     66 H           2.6042    7.8867   10.6132 H       1  UNL1        0.0235
     67 H           1.8686    6.3196   10.2597 H       1  UNL1        0.0235
     68 H           3.1478    6.4428   11.4819 H       1  UNL1        0.0235
     69 C          -0.0015    7.8819   11.5520 C.3     1  UNL1       -0.0586
     70 H          -0.7108    8.1405   12.3349 H       1  UNL1        0.0235
     71 H          -0.4958    7.2211   10.8425 H       1  UNL1        0.0235
     72 H           0.2742    8.7935   11.0280 H       1  UNL1        0.0235
@<TRIPOS>BOND
     1    67    65    1
     2    66    65    1
     3    71    69    1
     4    72    69    1
     5    65    68    1
     6    65    63    1
     7    69    63    1
     8    69    70    1
     9    47    46    1
    10    63    64    1
    11    63    45    1
    12    31    30    1
    13    46    45   ar
    14    46    48   ar
    15    28    26    1
    16    45    44   ar
    17    30    33    1
    18    30    32    1
    19    30    24    1
    20    49    48    1
    21    25    24    1
    22    48    50   ar
    23    26    24    1
    24    26    29    1
    25    26    27    1
    26    14    11    1
    27    24    23    1
    28    44     2    1
    29    44    52   ar
    30     2    10    1
    31    12    11    1
    32    11    10    1
    33    11    13    1
    34    10     8    1
    35    50    52   ar
    36    50    51    1
    37    52    53    1
    38     8     9    1
    39     8     7    2
    40     1     7    1
    41     1    15    1
    42    23    15   ar
    43    23    21   ar
    44    22    21    1
    45     7     3    1
    46     5     3    1
    47    15    16   ar
    48    21    19   ar
    49    60    59    1
    50    54    53    1
    51    53    59    1
    52    53    55    1
    53     3     4    1
    54     3     6    1
    55    59    62    1
    56    59    61    1
    57    58    55    1
    58    55    56    1
    59    55    57    1
    60    16    17   ar
    61    16    34    1
    62    19    20    1
    63    19    17   ar
    64    35    34    1
    65    43    40    1
    66    17    18    1
    67    34    40    1
    68    34    36    1
    69    40    42    1
    70    40    41    1
    71    37    36    1
    72    36    38    1
    73    36    39    1
