@<TRIPOS>MOLECULE
1,2
 72 73 0 0 0
SMALL
GASTEIGER

@<TRIPOS>ATOM
      1 N           6.2859   10.2530   13.0270 N.pl3   1  UNL1       -0.2192
      2 N           8.9093    8.9312   13.8311 N.pl3   1  UNL1       -0.2371
      3 C           4.7545   10.3988   14.9612 C.3     1  UNL1       -0.0248
      4 H           4.8464   11.3030   15.5618 H       1  UNL1        0.0290
      5 H           4.4620    9.5892   15.6272 H       1  UNL1        0.0290
      6 H           3.9757   10.5455   14.2179 H       1  UNL1        0.0290
      7 C           6.0930   10.0956   14.3206 C.2     1  UNL1        0.0264
      8 C           7.0550    9.6195   15.2205 C.2     1  UNL1       -0.0383
      9 H           6.7363    9.6215   16.2542 H       1  UNL1        0.0610
     10 C           8.2863    9.0043   15.0013 C.3     1  UNL1        0.0968
     11 C           8.8786    8.3548   16.2369 C.3     1  UNL1       -0.0359
     12 H           8.2579    7.5144   16.5442 H       1  UNL1        0.0255
     13 H           8.8922    9.0716   17.0564 H       1  UNL1        0.0255
     14 H           9.8874    7.9907   16.0623 H       1  UNL1        0.0255
     15 C           5.1593   10.5386   12.2013 C.ar    1  UNL1        0.0601
     16 C           4.4787    9.4643   11.5977 C.ar    1  UNL1       -0.0216
     17 C           3.3650    9.7230   10.8121 C.ar    1  UNL1       -0.0565
     18 H           2.8229    8.9024   10.3682 H       1  UNL1        0.0621
     19 C           2.9219   11.0137   10.5998 C.ar    1  UNL1       -0.0611
     20 H           2.0474   11.1976    9.9927 H       1  UNL1        0.0618
     21 C           3.6023   12.0657   11.1779 C.ar    1  UNL1       -0.0565
     22 H           3.2473   13.0726   11.0170 H       1  UNL1        0.0621
     23 C           4.7159   11.8560   11.9812 C.ar    1  UNL1       -0.0216
     24 C           5.3832   13.0607   12.6097 C.3     1  UNL1       -0.0197
     25 H           6.2558   12.7253   13.1815 H       1  UNL1        0.0344
     26 C           4.4120   13.7680   13.5624 C.3     1  UNL1       -0.0586
     27 H           3.6056   14.2431   13.0082 H       1  UNL1        0.0235
     28 H           4.9373   14.5368   14.1256 H       1  UNL1        0.0235
     29 H           3.9706   13.0682   14.2670 H       1  UNL1        0.0235
     30 C           5.8675   14.0502   11.5423 C.3     1  UNL1       -0.0586
     31 H           6.8207   13.7235   11.1304 H       1  UNL1        0.0235
     32 H           6.0145   15.0323   11.9837 H       1  UNL1        0.0235
     33 H           5.1499   14.1463   10.7313 H       1  UNL1        0.0235
     34 C           4.9144    8.0326   11.8168 C.3     1  UNL1       -0.0197
     35 H           5.9199    8.0406   12.2577 H       1  UNL1        0.0344
     36 C           4.9937    7.2665   10.4952 C.3     1  UNL1       -0.0586
     37 H           4.0191    7.1768   10.0216 H       1  UNL1        0.0235
     38 H           5.3748    6.2636   10.6696 H       1  UNL1        0.0235
     39 H           5.6713    7.7774    9.8169 H       1  UNL1        0.0235
     40 C           3.9632    7.3339   12.7922 C.3     1  UNL1       -0.0586
     41 H           3.9521    7.8462   13.7512 H       1  UNL1        0.0235
     42 H           4.2798    6.3058   12.9554 H       1  UNL1        0.0235
     43 H           2.9492    7.3233   12.3967 H       1  UNL1        0.0235
     44 C           9.9716    7.9930   13.7185 C.ar    1  UNL1        0.0557
     45 C          11.3129    8.4141   13.6718 C.ar    1  UNL1       -0.0219
     46 C          12.3145    7.4593   13.5569 C.ar    1  UNL1       -0.0565
     47 H          13.3482    7.7674   13.5404 H       1  UNL1        0.0621
     48 C          12.0165    6.1136   13.4716 C.ar    1  UNL1       -0.0611
     49 H          12.8107    5.3869   13.3810 H       1  UNL1        0.0618
     50 C          10.6982    5.7051   13.5029 C.ar    1  UNL1       -0.0565
     51 H          10.4700    4.6532   13.4258 H       1  UNL1        0.0621
     52 C           9.6664    6.6208   13.6392 C.ar    1  UNL1       -0.0219
     53 C           8.2383    6.1248   13.6320 C.3     1  UNL1       -0.0197
     54 H           7.5700    6.9470   13.9074 H       1  UNL1        0.0344
     55 C           7.8707    5.6773   12.2151 C.3     1  UNL1       -0.0586
     56 H           7.9206    6.5232   11.5323 H       1  UNL1        0.0235
     57 H           6.8617    5.2708   12.2039 H       1  UNL1        0.0235
     58 H           8.5570    4.9096   11.8646 H       1  UNL1        0.0235
     59 C           8.0197    4.9856   14.6313 C.3     1  UNL1       -0.0586
     60 H           8.5107    4.0732   14.3023 H       1  UNL1        0.0235
     61 H           6.9559    4.7778   14.7283 H       1  UNL1        0.0235
     62 H           8.4107    5.2485   15.6120 H       1  UNL1        0.0235
     63 C          11.6773    9.8791   13.7852 C.3     1  UNL1       -0.0197
     64 H          10.8416   10.4773   13.3807 H       1  UNL1        0.0344
     65 C          12.9460   10.2285   13.0017 C.3     1  UNL1       -0.0586
     66 H          13.8371    9.8977   13.5311 H       1  UNL1        0.0235
     67 H          13.0221   11.3067   12.8768 H       1  UNL1        0.0235
     68 H          12.9398    9.7730   12.0136 H       1  UNL1        0.0235
     69 C          11.8650   10.2621   15.2570 C.3     1  UNL1       -0.0586
     70 H          10.9346   10.1495   15.8046 H       1  UNL1        0.0235
     71 H          12.1819   11.2987   15.3377 H       1  UNL1        0.0235
     72 H          12.6204    9.6274   15.7181 H       1  UNL1        0.0235
@<TRIPOS>BOND
     1    39    36    1
     2    20    19    1
     3    37    36    1
     4    18    17    1
     5    36    38    1
     6    36    34    1
     7    19    17   ar
     8    19    21   ar
     9    33    30    1
    10    17    16   ar
    11    22    21    1
    12    31    30    1
    13    21    23   ar
    14    56    55    1
    15    30    32    1
    16    30    24    1
    17    16    34    1
    18    16    15   ar
    19    34    35    1
    20    34    40    1
    21    58    55    1
    22    23    15   ar
    23    23    24    1
    24    68    65    1
    25    15     1    1
    26    57    55    1
    27    55    53    1
    28    43    40    1
    29    24    25    1
    30    24    26    1
    31    40    42    1
    32    40    41    1
    33    67    65    1
    34    65    66    1
    35    65    63    1
    36    27    26    1
    37     1     7    1
    38    64    63    1
    39    49    48    1
    40    51    50    1
    41    48    50   ar
    42    48    46   ar
    43    50    52   ar
    44    47    46    1
    45    46    45   ar
    46    26    28    1
    47    26    29    1
    48    53    52    1
    49    53    54    1
    50    53    59    1
    51    52    44   ar
    52    45    44   ar
    53    45    63    1
    54    44     2    1
    55    63    69    1
    56     2    10    1
    57     6     3    1
    58    60    59    1
    59     7     3    1
    60     7     8    2
    61    59    61    1
    62    59    62    1
    63     3     4    1
    64     3     5    1
    65    10     8    1
    66    10    11    1
    67     8     9    1
    68    69    71    1
    69    69    72    1
    70    69    70    1
    71    14    11    1
    72    11    12    1
    73    11    13    1
