@<TRIPOS>MOLECULE
3,4
 71 74 0 0 0
SMALL
GASTEIGER

@<TRIPOS>ATOM
      1 SI          0.2533    3.3250   12.4253 Si      1  UNL1        0.0000
      2 N           2.4243    2.2878    9.2866 N.2     1  UNL1        0.5000
      3 N           1.3918    2.7583   11.2374 N.pl3   1  UNL1        0.5000
      4 N           0.9343    2.0991   13.4557 N.pl3   1  UNL1        0.5000
      5 N           1.5832    0.9112   15.2617 N.2     1  UNL1        0.5000
      6 C           2.8281    2.5699    7.9853 C.ar    1  UNL1        0.0000
      7 C           2.5614    1.6410    6.9647 C.ar    1  UNL1        0.0000
      8 C           3.0464    1.8606    5.6868 C.ar    1  UNL1        0.0000
      9 H           2.8225    1.1420    4.9104 H       1  UNL1        0.0000
     10 C           3.8029    2.9797    5.3920 C.ar    1  UNL1        0.0000
     11 H           4.1758    3.1404    4.3914 H       1  UNL1        0.0000
     12 C           4.0735    3.8895    6.3947 C.ar    1  UNL1        0.0000
     13 H           4.6643    4.7692    6.1791 H       1  UNL1        0.0000
     14 C           3.5980    3.7068    7.6848 C.ar    1  UNL1        0.0000
     15 C           1.7390    0.4139    7.2324 C.3     1  UNL1        0.0000
     16 H           1.0742    0.5718    8.0765 H       1  UNL1        0.0000
     17 H           2.3851   -0.4334    7.4651 H       1  UNL1        0.0000
     18 H           1.1495    0.1516    6.3552 H       1  UNL1        0.0000
     19 C           3.9412    4.7392    8.7204 C.3     1  UNL1        0.0000
     20 H           4.9934    5.0113    8.6444 H       1  UNL1        0.0000
     21 H           3.7444    4.3725    9.7236 H       1  UNL1        0.0000
     22 H           3.3481    5.6411    8.5614 H       1  UNL1        0.0000
     23 C           1.5989    3.0302    9.9485 C.2     1  UNL1        0.0000
     24 C           0.8283    4.1399    9.3177 C.ar    1  UNL1        0.0000
     25 C           0.0541    3.8928    8.1899 C.ar    1  UNL1        0.0000
     26 H           0.0107    2.8960    7.7775 H       1  UNL1        0.0000
     27 C          -0.6623    4.9177    7.5985 C.ar    1  UNL1        0.0000
     28 H          -1.2638    4.7168    6.7242 H       1  UNL1        0.0000
     29 C          -0.6058    6.1986    8.1214 C.ar    1  UNL1        0.0000
     30 H          -1.1628    6.9986    7.6566 H       1  UNL1        0.0000
     31 C           0.1725    6.4522    9.2386 C.ar    1  UNL1        0.0000
     32 H           0.2265    7.4526    9.6433 H       1  UNL1        0.0000
     33 C           0.8857    5.4282    9.8347 C.ar    1  UNL1        0.0000
     34 H           1.5069    5.6252   10.6947 H       1  UNL1        0.0000
     35 C           0.4569    5.0622   13.2128 C.3     1  UNL1        0.0000
     36 H          -0.0091    5.8342   12.6106 H       1  UNL1        0.0000
     37 H           1.5014    5.3251   13.3575 H       1  UNL1        0.0000
     38 H          -0.0204    5.0751   14.1883 H       1  UNL1        0.0000
     39 C          -1.5434    3.1566   11.7745 C.3     1  UNL1        0.0000
     40 H          -2.2660    3.5530   12.4791 H       1  UNL1        0.0000
     41 H          -1.8051    2.1237   11.5607 H       1  UNL1        0.0000
     42 H          -1.6470    3.7167   10.8497 H       1  UNL1        0.0000
     43 C           0.7774    1.7765   14.7401 C.2     1  UNL1        0.0000
     44 C          -0.2833    2.4684   15.5271 C.ar    1  UNL1        0.0000
     45 C           0.0500    3.1509   16.6913 C.ar    1  UNL1        0.0000
     46 H           1.0781    3.1813   17.0191 H       1  UNL1        0.0000
     47 C          -0.9297    3.7936   17.4267 C.ar    1  UNL1        0.0000
     48 H          -0.6621    4.3248   18.3282 H       1  UNL1        0.0000
     49 C          -2.2502    3.7535   17.0122 C.ar    1  UNL1        0.0000
     50 H          -3.0147    4.2523   17.5896 H       1  UNL1        0.0000
     51 C          -2.5891    3.0659   15.8588 C.ar    1  UNL1        0.0000
     52 H          -3.6201    3.0237   15.5381 H       1  UNL1        0.0000
     53 C          -1.6107    2.4270   15.1189 C.ar    1  UNL1        0.0000
     54 H          -1.8730    1.8759   14.2291 H       1  UNL1        0.0000
     55 C           1.4210    0.3937   16.5432 C.ar    1  UNL1        0.0000
     56 C           2.4322    0.5928   17.4989 C.ar    1  UNL1        0.0000
     57 C           2.3303    0.0001   18.7459 C.ar    1  UNL1        0.0000
     58 H           3.1109    0.1732   19.4739 H       1  UNL1        0.0000
     59 C           1.2508   -0.8003   19.0706 C.ar    1  UNL1        0.0000
     60 H           1.1824   -1.2576   20.0465 H       1  UNL1        0.0000
     61 C           0.2613   -1.0062   18.1298 C.ar    1  UNL1        0.0000
     62 H          -0.5880   -1.6311   18.3693 H       1  UNL1        0.0000
     63 C           0.3248   -0.4217   16.8736 C.ar    1  UNL1        0.0000
     64 C           3.6221    1.4564   17.1956 C.3     1  UNL1        0.0000
     65 H           3.3769    2.2015   16.4444 H       1  UNL1        0.0000
     66 H           4.4438    0.8499   16.8129 H       1  UNL1        0.0000
     67 H           3.9696    1.9571   18.0977 H       1  UNL1        0.0000
     68 C          -0.7886   -0.6980   15.9043 C.3     1  UNL1        0.0000
     69 H          -1.6783   -0.1317   16.1837 H       1  UNL1        0.0000
     70 H          -1.0456   -1.7567   15.9199 H       1  UNL1        0.0000
     71 H          -0.5090   -0.4187   14.8927 H       1  UNL1        0.0000
@<TRIPOS>BOND
     1    11    10    1
     2     9     8    1
     3    10     8   ar
     4    10    12   ar
     5     8     7   ar
     6    13    12    1
     7    18    15    1
     8    12    14   ar
     9    28    27    1
    10     7    15    1
    11     7     6   ar
    12    15    17    1
    13    15    16    1
    14    27    29   ar
    15    27    25   ar
    16    30    29    1
    17    14     6   ar
    18    14    19    1
    19    26    25    1
    20     6     2    1
    21    29    31   ar
    22    25    24   ar
    23    22    19    1
    24    20    19    1
    25    19    21    1
    26    31    32    1
    27    31    33   ar
    28     2    23    2
    29    24    33   ar
    30    24    23    1
    31    33    34    1
    32    23     3    1
    33    42    39    1
    34     3     1    1
    35    41    39    1
    36    39     1    1
    37    39    40    1
    38     1    35    1
    39     1     4    1
    40    36    35    1
    41    35    37    1
    42    35    38    1
    43     4    43    1
    44    54    53    1
    45    43     5    2
    46    43    44    1
    47    71    68    1
    48    53    44   ar
    49    53    51   ar
    50     5    55    1
    51    44    45   ar
    52    52    51    1
    53    51    49   ar
    54    68    70    1
    55    68    69    1
    56    68    63    1
    57    65    64    1
    58    55    63   ar
    59    55    56   ar
    60    45    46    1
    61    45    47   ar
    62    66    64    1
    63    63    61   ar
    64    49    47   ar
    65    49    50    1
    66    64    56    1
    67    64    67    1
    68    47    48    1
    69    56    57   ar
    70    61    62    1
    71    61    59   ar
    72    57    59   ar
    73    57    58    1
    74    59    60    1
