@<TRIPOS>MOLECULE
1,9
 54 55 0 0 0
SMALL
GASTEIGER

@<TRIPOS>ATOM
      1 N           4.6684   -1.6389   29.3872 N.pl3   1  UNL1       -0.2372
      2 C           4.6117   -0.3423   29.1396 C.3     1  UNL1        0.0968
      3 C           5.8434    0.5311   29.2604 C.3     1  UNL1       -0.0359
      4 H           6.7353   -0.0537   29.4653 H       1  UNL1        0.0255
      5 H           5.7020    1.2541   30.0621 H       1  UNL1        0.0255
      6 H           5.9954    1.0876   28.3377 H       1  UNL1        0.0255
      7 C           3.4639    0.3399   28.7254 C.2     1  UNL1       -0.0383
      8 H           3.5811    1.4125   28.6522 H       1  UNL1        0.0610
      9 N           1.8804   -1.4139   28.2530 N.pl3   1  UNL1       -0.2193
     10 C           2.2362   -0.1426   28.2635 C.2     1  UNL1        0.0264
     11 C           1.3166    0.9217   27.7039 C.3     1  UNL1       -0.0248
     12 H           0.3664    0.5032   27.3839 H       1  UNL1        0.0290
     13 H           1.7844    1.4140   26.8529 H       1  UNL1        0.0290
     14 H           1.1331    1.6790   28.4641 H       1  UNL1        0.0290
     15 C           5.9325   -2.2370   29.6417 C.ar    1  UNL1        0.0546
     16 C           6.4881   -2.2453   30.9272 C.ar    1  UNL1       -0.0274
     17 C           5.7601   -1.5911   32.0652 C.3     1  UNL1       -0.0379
     18 H           4.7054   -1.8755   32.0615 H       1  UNL1        0.0278
     19 H           5.8110   -0.5060   31.9775 H       1  UNL1        0.0278
     20 H           6.2036   -1.8756   33.0164 H       1  UNL1        0.0278
     21 C           7.7185   -2.8555   31.1253 C.ar    1  UNL1       -0.0541
     22 H           8.1455   -2.8636   32.1185 H       1  UNL1        0.0623
     23 C           8.4135   -3.4484   30.0821 C.ar    1  UNL1       -0.0498
     24 C           9.7294   -4.1256   30.3177 C.3     1  UNL1       -0.0397
     25 H          10.1991   -3.7594   31.2272 H       1  UNL1        0.0278
     26 H          10.4045   -3.9621   29.4806 H       1  UNL1        0.0278
     27 H           9.5785   -5.2004   30.4216 H       1  UNL1        0.0278
     28 C           7.8498   -3.4255   28.8125 C.ar    1  UNL1       -0.0541
     29 H           8.3842   -3.8785   27.9891 H       1  UNL1        0.0623
     30 C           6.6234   -2.8282   28.5751 C.ar    1  UNL1       -0.0274
     31 C           6.0200   -2.7965   27.2031 C.3     1  UNL1       -0.0379
     32 H           5.0925   -3.3768   27.1975 H       1  UNL1        0.0278
     33 H           6.7036   -3.2208   26.4720 H       1  UNL1        0.0278
     34 H           5.7847   -1.7725   26.9113 H       1  UNL1        0.0278
     35 C           0.7378   -1.8031   27.5022 C.ar    1  UNL1        0.0591
     36 C           0.8698   -2.0241   26.1238 C.ar    1  UNL1       -0.0270
     37 C           2.1564   -1.6949   25.4231 C.3     1  UNL1       -0.0379
     38 H           3.0120   -1.8707   26.0754 H       1  UNL1        0.0278
     39 H           2.1633   -0.6416   25.1394 H       1  UNL1        0.0278
     40 H           2.2614   -2.2878   24.5179 H       1  UNL1        0.0278
     41 C          -0.2120   -2.5175   25.4110 C.ar    1  UNL1       -0.0541
     42 H          -0.1024   -2.6989   24.3512 H       1  UNL1        0.0623
     43 C          -1.4291   -2.7758   26.0245 C.ar    1  UNL1       -0.0498
     44 C          -2.5728   -3.3499   25.2441 C.3     1  UNL1       -0.0397
     45 H          -3.5244   -3.0925   25.7027 H       1  UNL1        0.0278
     46 H          -2.4944   -4.4371   25.2155 H       1  UNL1        0.0278
     47 H          -2.5646   -2.9863   24.2190 H       1  UNL1        0.0278
     48 C          -1.5622   -2.4871   27.3756 C.ar    1  UNL1       -0.0541
     49 H          -2.5174   -2.6413   27.8577 H       1  UNL1        0.0623
     50 C          -0.5059   -1.9897   28.1236 C.ar    1  UNL1       -0.0270
     51 C          -0.6929   -1.6000   29.5578 C.3     1  UNL1       -0.0379
     52 H          -0.0725   -2.2090   30.2213 H       1  UNL1        0.0278
     53 H          -1.7342   -1.7162   29.8480 H       1  UNL1        0.0278
     54 H          -0.4061   -0.5591   29.7054 H       1  UNL1        0.0278
@<TRIPOS>BOND
     1    47    44    1
     2    42    41    1
     3    40    37    1
     4    39    37    1
     5    46    44    1
     6    44    45    1
     7    44    43    1
     8    41    43   ar
     9    41    36   ar
    10    37    38    1
    11    37    36    1
    12    43    48   ar
    13    36    35   ar
    14    33    31    1
    15    13    11    1
    16    34    31    1
    17    32    31    1
    18    31    30    1
    19    48    49    1
    20    48    50   ar
    21    12    11    1
    22    35    50   ar
    23    35     9    1
    24    11    10    1
    25    11    14    1
    26    29    28    1
    27    50    51    1
    28     9    10    1
    29    10     7    2
    30     6     3    1
    31    30    28   ar
    32    30    15   ar
    33     8     7    1
    34     7     2    1
    35    28    23   ar
    36     2     3    1
    37     2     1    1
    38     3     4    1
    39     3     5    1
    40     1    15    1
    41    26    24    1
    42    51    54    1
    43    51    53    1
    44    51    52    1
    45    15    16   ar
    46    23    24    1
    47    23    21   ar
    48    24    27    1
    49    24    25    1
    50    16    21   ar
    51    16    17    1
    52    21    22    1
    53    19    17    1
    54    18    17    1
    55    17    20    1
