@<TRIPOS>MOLECULE
1,2
 126 127 0 0 0
SMALL
GASTEIGER

@<TRIPOS>ATOM
      1 N          -3.8235    7.4664   -6.6716 N.pl3   1  UNL1        0.0000
      2 N          -2.7816    8.4639   -9.2506 N.pl3   1  UNL1        0.0000
      3 C          -3.7620    8.7661   -6.4097 C.3     1  UNL1        0.0000
      4 C          -3.1838    9.7172   -7.2562 C.2     1  UNL1        0.0000
      5 H          -3.1390   10.7189   -6.8552 H       1  UNL1        0.0000
      6 C          -2.7789    9.6048   -8.5871 C.2     1  UNL1        0.0000
      7 C          -4.4239    9.2944   -5.1646 C.3     1  UNL1        0.0000
      8 H          -5.4995    9.1480   -5.2466 H       1  UNL1        0.0000
      9 H          -4.2205   10.3522   -5.0334 H       1  UNL1        0.0000
     10 H          -4.0835    8.7465   -4.2904 H       1  UNL1        0.0000
     11 C          -2.3795   10.8888   -9.2702 C.3     1  UNL1        0.0000
     12 H          -1.3469   11.1170   -9.0075 H       1  UNL1        0.0000
     13 H          -3.0033   11.7142   -8.9372 H       1  UNL1        0.0000
     14 H          -2.4484   10.7969  -10.3512 H       1  UNL1        0.0000
     15 C          -4.5419    6.6829   -5.7003 C.ar    1  UNL1        0.0000
     16 C          -5.9264    6.5377   -5.8519 C.ar    1  UNL1        0.0000
     17 C          -6.6586    6.0728   -4.7682 C.ar    1  UNL1        0.0000
     18 H          -7.7264    5.9871   -4.8745 H       1  UNL1        0.0000
     19 C          -6.0668    5.7512   -3.5560 C.ar    1  UNL1        0.0000
     20 C          -4.6797    5.7706   -3.4867 C.ar    1  UNL1        0.0000
     21 H          -4.1906    5.4484   -2.5830 H       1  UNL1        0.0000
     22 C          -3.8919    6.2103   -4.5450 C.ar    1  UNL1        0.0000
     23 C          -6.6079    6.8104   -7.1560 C.3     1  UNL1        0.0000
     24 H          -5.8306    7.0435   -7.8937 H       1  UNL1        0.0000
     25 C          -6.9260    5.4031   -2.3832 C.3     1  UNL1        0.0000
     26 H          -7.9613    5.5597   -2.7062 H       1  UNL1        0.0000
     27 C          -2.4039    6.0975   -4.4809 C.3     1  UNL1        0.0000
     28 H          -2.0246    6.2951   -5.4874 H       1  UNL1        0.0000
     29 SI         -7.7624    8.3478   -7.1238 Si      1  UNL1        0.0000
     30 SI         -7.3691    5.1297   -7.7621 Si      1  UNL1        0.0000
     31 SI         -6.8700    3.5250   -1.9562 Si      1  UNL1        0.0000
     32 SI         -6.6778    6.6593   -0.9456 Si      1  UNL1        0.0000
     33 SI         -1.9032    4.2489   -4.1386 Si      1  UNL1        0.0000
     34 SI         -1.4409    7.3710   -3.3938 Si      1  UNL1        0.0000
     35 C          -6.7866    9.9251   -7.6222 C.3     1  UNL1        0.0000
     36 H          -7.2268   10.3821   -8.5032 H       1  UNL1        0.0000
     37 H          -5.7506    9.7029   -7.8563 H       1  UNL1        0.0000
     38 H          -6.7892   10.6749   -6.8368 H       1  UNL1        0.0000
     39 C          -9.1918    8.2245   -8.3820 C.3     1  UNL1        0.0000
     40 H          -9.8335    9.0977   -8.3072 H       1  UNL1        0.0000
     41 H          -9.8109    7.3490   -8.2240 H       1  UNL1        0.0000
     42 H          -8.8151    8.1842   -9.3986 H       1  UNL1        0.0000
     43 C          -8.5355    8.6500   -5.3998 C.3     1  UNL1        0.0000
     44 H          -7.8021    8.5838   -4.6021 H       1  UNL1        0.0000
     45 H          -9.3158    7.9281   -5.1820 H       1  UNL1        0.0000
     46 H          -8.9881    9.6365   -5.3537 H       1  UNL1        0.0000
     47 C          -6.1310    3.7380   -7.3713 C.3     1  UNL1        0.0000
     48 H          -5.8678    3.7264   -6.3180 H       1  UNL1        0.0000
     49 H          -5.2107    3.8688   -7.9308 H       1  UNL1        0.0000
     50 H          -6.5324    2.7616   -7.6256 H       1  UNL1        0.0000
     51 C          -7.7594    5.1760   -9.6264 C.3     1  UNL1        0.0000
     52 H          -6.8912    5.4775  -10.1997 H       1  UNL1        0.0000
     53 H          -8.5762    5.8474   -9.8646 H       1  UNL1        0.0000
     54 H          -8.0437    4.1842   -9.9647 H       1  UNL1        0.0000
     55 C          -9.0074    4.7254   -6.8519 C.3     1  UNL1        0.0000
     56 H          -9.6352    4.1049   -7.4833 H       1  UNL1        0.0000
     57 H          -9.5773    5.6133   -6.6003 H       1  UNL1        0.0000
     58 H          -8.8292    4.1734   -5.9356 H       1  UNL1        0.0000
     59 C          -5.2026    2.8658   -1.3151 C.3     1  UNL1        0.0000
     60 H          -4.8516    3.4161   -0.4493 H       1  UNL1        0.0000
     61 H          -4.4331    2.9119   -2.0759 H       1  UNL1        0.0000
     62 H          -5.3042    1.8257   -1.0178 H       1  UNL1        0.0000
     63 C          -7.3563    2.5653   -3.5330 C.3     1  UNL1        0.0000
     64 H          -7.2572    1.4934   -3.3925 H       1  UNL1        0.0000
     65 H          -6.7291    2.8435   -4.3736 H       1  UNL1        0.0000
     66 H          -8.3859    2.7625   -3.8164 H       1  UNL1        0.0000
     67 C          -8.1837    3.1776   -0.6129 C.3     1  UNL1        0.0000
     68 H          -8.3422    2.1099   -0.4983 H       1  UNL1        0.0000
     69 H          -9.1416    3.6242   -0.8587 H       1  UNL1        0.0000
     70 H          -7.8770    3.5649    0.3530 H       1  UNL1        0.0000
     71 C          -5.3378    6.1624    0.3167 C.3     1  UNL1        0.0000
     72 H          -5.1664    6.9661    1.0267 H       1  UNL1        0.0000
     73 H          -4.3883    5.9430   -0.1582 H       1  UNL1        0.0000
     74 H          -5.6383    5.2872    0.8837 H       1  UNL1        0.0000
     75 C          -6.2439    8.3643   -1.6913 C.3     1  UNL1        0.0000
     76 H          -5.9883    9.0844   -0.9202 H       1  UNL1        0.0000
     77 H          -7.0800    8.7701   -2.2525 H       1  UNL1        0.0000
     78 H          -5.4022    8.2920   -2.3714 H       1  UNL1        0.0000
     79 C          -8.3320    6.8537   -0.0102 C.3     1  UNL1        0.0000
     80 H          -8.6346    5.9288    0.4673 H       1  UNL1        0.0000
     81 H          -9.1334    7.1552   -0.6773 H       1  UNL1        0.0000
     82 H          -8.2522    7.6097    0.7647 H       1  UNL1        0.0000
     83 C          -1.5856    3.9342   -2.2738 C.3     1  UNL1        0.0000
     84 H          -2.4587    4.1304   -1.6625 H       1  UNL1        0.0000
     85 H          -0.7720    4.5323   -1.8814 H       1  UNL1        0.0000
     86 H          -1.3203    2.8918   -2.1268 H       1  UNL1        0.0000
     87 C          -0.2689    3.8794   -5.0580 C.3     1  UNL1        0.0000
     88 H          -0.3983    3.0537   -5.7490 H       1  UNL1        0.0000
     89 H           0.5303    3.6161   -4.3727 H       1  UNL1        0.0000
     90 H           0.0586    4.7356   -5.6386 H       1  UNL1        0.0000
     91 C          -3.2612    2.9894   -4.6104 C.3     1  UNL1        0.0000
     92 H          -3.1210    2.0548   -4.0746 H       1  UNL1        0.0000
     93 H          -3.2430    2.7669   -5.6700 H       1  UNL1        0.0000
     94 H          -4.2518    3.3641   -4.3730 H       1  UNL1        0.0000
     95 C           0.3990    6.8667   -3.3384 C.3     1  UNL1        0.0000
     96 H           0.9556    7.5215   -2.6738 H       1  UNL1        0.0000
     97 H           0.8329    6.9627   -4.3288 H       1  UNL1        0.0000
     98 H           0.5604    5.8482   -3.0087 H       1  UNL1        0.0000
     99 C          -1.3640    9.1607   -4.0748 C.3     1  UNL1        0.0000
    100 H          -2.1284    9.8129   -3.6665 H       1  UNL1        0.0000
    101 H          -1.4428    9.1776   -5.1563 H       1  UNL1        0.0000
    102 H          -0.4022    9.5980   -3.8224 H       1  UNL1        0.0000
    103 C          -2.1716    7.4855   -1.6326 C.3     1  UNL1        0.0000
    104 H          -1.6544    8.2523   -1.0645 H       1  UNL1        0.0000
    105 H          -2.0622    6.5533   -1.0915 H       1  UNL1        0.0000
    106 H          -3.2260    7.7412   -1.6409 H       1  UNL1        0.0000
    107 C          -2.6201    8.4471  -10.6647 C.ar    1  UNL1        0.0000
    108 C          -1.3609    8.3807  -11.2696 C.ar    1  UNL1        0.0000
    109 C          -1.2876    8.2344  -12.6504 C.ar    1  UNL1        0.0000
    110 H          -0.3115    8.1815  -13.1131 H       1  UNL1        0.0000
    111 C          -2.4218    8.1768  -13.4418 C.ar    1  UNL1        0.0000
    112 C          -3.6585    8.3403  -12.8301 C.ar    1  UNL1        0.0000
    113 H          -4.5508    8.3553  -13.4387 H       1  UNL1        0.0000
    114 C          -3.7779    8.4966  -11.4601 C.ar    1  UNL1        0.0000
    115 C          -0.0886    8.5449  -10.4917 C.3     1  UNL1        0.0000
    116 H           0.6824    7.8784  -10.8707 H       1  UNL1        0.0000
    117 H          -0.2300    8.3591   -9.4305 H       1  UNL1        0.0000
    118 H           0.2743    9.5674  -10.6103 H       1  UNL1        0.0000
    119 C          -2.3302    7.9695  -14.9231 C.3     1  UNL1        0.0000
    120 H          -2.7040    6.9798  -15.1851 H       1  UNL1        0.0000
    121 H          -1.3019    8.0511  -15.2664 H       1  UNL1        0.0000
    122 H          -2.9359    8.7034  -15.4515 H       1  UNL1        0.0000
    123 C          -5.1124    8.7798  -10.8399 C.3     1  UNL1        0.0000
    124 H          -5.1038    9.7600  -10.3629 H       1  UNL1        0.0000
    125 H          -5.3532    8.0384  -10.0806 H       1  UNL1        0.0000
    126 H          -5.8914    8.7661  -11.5969 H       1  UNL1        0.0000
@<TRIPOS>BOND
     1   122   119    1
     2   121   119    1
     3   120   119    1
     4   119   111    1
     5   111   112   ar
     6   111   109   ar
     7   113   112    1
     8   110   109    1
     9   112   114   ar
    10   109   108   ar
    11   126   123    1
    12   114   123    1
    13   114   107   ar
    14   108   107   ar
    15   108   115    1
    16   116   115    1
    17   123   124    1
    18   123   125    1
    19   107     2    1
    20   118   115    1
    21   115   117    1
    22    14    11    1
    23    52    51    1
    24    54    51    1
    25    53    51    1
    26    51    30    1
    27    42    39    1
    28    11    12    1
    29    11    13    1
    30    11     6    1
    31     2     6    1
    32     6     4    2
    33    36    35    1
    34    39    40    1
    35    39    41    1
    36    39    29    1
    37    49    47    1
    38    24    23    1
    39    37    35    1
    40    30    47    1
    41    30    23    1
    42    30    55    1
    43    50    47    1
    44    35    29    1
    45    35    38    1
    46    56    55    1
    47    47    48    1
    48     4     5    1
    49     4     3    1
    50    23    29    1
    51    23    16    1
    52    29    43    1
    53    55    57    1
    54    55    58    1
    55     1     3    1
    56     1    15    1
    57     3     7    1
    58    16    15   ar
    59    16    17   ar
    60    88    87    1
    61    15    22   ar
    62    93    91    1
    63    90    87    1
    64    28    27    1
    65    43    46    1
    66    43    45    1
    67    43    44    1
    68     8     7    1
    69     7     9    1
    70     7    10    1
    71   101    99    1
    72    87    89    1
    73    87    33    1
    74    18    17    1
    75    17    19   ar
    76    91    94    1
    77    91    33    1
    78    91    92    1
    79    22    27    1
    80    22    20   ar
    81    27    33    1
    82    27    34    1
    83    65    63    1
    84    97    95    1
    85    33    83    1
    86    99   102    1
    87    99   100    1
    88    99    34    1
    89    66    63    1
    90    19    20   ar
    91    19    25    1
    92    63    64    1
    93    63    31    1
    94    20    21    1
    95    34    95    1
    96    34   103    1
    97    95    98    1
    98    95    96    1
    99    26    25    1
   100    25    31    1
   101    25    32    1
   102    78    75    1
   103    83    86    1
   104    83    85    1
   105    83    84    1
   106    77    75    1
   107    61    59    1
   108    31    59    1
   109    31    67    1
   110    75    32    1
   111    75    76    1
   112   106   103    1
   113   103   105    1
   114   103   104    1
   115    59    62    1
   116    59    60    1
   117    32    79    1
   118    32    71    1
   119    69    67    1
   120    81    79    1
   121    67    68    1
   122    67    70    1
   123    73    71    1
   124    79    80    1
   125    79    82    1
   126    71    74    1
   127    71    72    1
