@<TRIPOS>MOLECULE
1,2
 126 127 0 0 0
SMALL
GASTEIGER

@<TRIPOS>ATOM
      1 N          15.6266   13.8224   20.5773 N.pl3   1  UNL1        0.0000
      2 N          14.5353   12.8815   23.1059 N.pl3   1  UNL1        0.0000
      3 C          15.5851   12.5228   20.3170 C.3     1  UNL1        0.0000
      4 C          15.0037   11.5729   21.1632 C.2     1  UNL1        0.0000
      5 H          14.9798   10.5620   20.7830 H       1  UNL1        0.0000
      6 C          14.5686   11.7212   22.4842 C.2     1  UNL1        0.0000
      7 C          16.2697   11.9988   19.0801 C.3     1  UNL1        0.0000
      8 H          15.9603   12.5657   18.2056 H       1  UNL1        0.0000
      9 H          16.0507   10.9465   18.9291 H       1  UNL1        0.0000
     10 H          17.3459   12.1224   19.1897 H       1  UNL1        0.0000
     11 C          14.1760   10.4530   23.2033 C.3     1  UNL1        0.0000
     12 H          13.1547   10.1947   22.9243 H       1  UNL1        0.0000
     13 H          14.2164   10.5869   24.2817 H       1  UNL1        0.0000
     14 H          14.8245    9.6292   22.9170 H       1  UNL1        0.0000
     15 C          16.3447   14.6225   19.6261 C.ar    1  UNL1        0.0000
     16 C          15.6880   15.1364   18.4922 C.ar    1  UNL1        0.0000
     17 C          16.4683   15.6055   17.4414 C.ar    1  UNL1        0.0000
     18 H          15.9737   15.9583   16.5521 H       1  UNL1        0.0000
     19 C          17.8563   15.6139   17.5011 C.ar    1  UNL1        0.0000
     20 C          18.4573   15.2552   18.6988 C.ar    1  UNL1        0.0000
     21 H          19.5262   15.3350   18.7989 H       1  UNL1        0.0000
     22 C          17.7303   14.7641   19.7748 C.ar    1  UNL1        0.0000
     23 C          14.1987   15.2509   18.4563 C.3     1  UNL1        0.0000
     24 H          13.8451   15.0456   19.4724 H       1  UNL1        0.0000
     25 C          18.7052   15.9961   16.3315 C.3     1  UNL1        0.0000
     26 H          19.7439   15.8365   16.6416 H       1  UNL1        0.0000
     27 C          18.4023   14.4740   21.0806 C.3     1  UNL1        0.0000
     28 H          17.6177   14.2176   21.8042 H       1  UNL1        0.0000
     29 SI         13.2286   13.9677   17.3886 Si      1  UNL1        0.0000
     30 SI         13.6715   17.0955   18.1394 Si      1  UNL1        0.0000
     31 SI         18.6306   17.8847   15.9593 Si      1  UNL1        0.0000
     32 SI         18.4467   14.7714   14.8692 Si      1  UNL1        0.0000
     33 SI         19.1209   16.1594   21.7231 Si      1  UNL1        0.0000
     34 SI         19.5768   12.9543   21.0394 Si      1  UNL1        0.0000
     35 C          13.9308   13.8824   15.6138 C.3     1  UNL1        0.0000
     36 H          13.7979   14.8171   15.0830 H       1  UNL1        0.0000
     37 H          13.4172   13.1120   15.0475 H       1  UNL1        0.0000
     38 H          14.9894   13.6445   15.6026 H       1  UNL1        0.0000
     39 C          13.1954   12.1682   18.0459 C.3     1  UNL1        0.0000
     40 H          13.2942   12.1368   19.1258 H       1  UNL1        0.0000
     41 H          13.9632   11.5359   17.6136 H       1  UNL1        0.0000
     42 H          12.2367   11.7183   17.8039 H       1  UNL1        0.0000
     43 C          11.3799   14.4437   17.3841 C.3     1  UNL1        0.0000
     44 H          10.9783   14.3473   18.3881 H       1  UNL1        0.0000
     45 H          10.8149   13.7751   16.7408 H       1  UNL1        0.0000
     46 H          11.1914   15.4567   17.0523 H       1  UNL1        0.0000
     47 C          15.0192   18.3974   18.5300 C.3     1  UNL1        0.0000
     48 H          14.9647   18.7364   19.5571 H       1  UNL1        0.0000
     49 H          14.9071   19.2675   17.8896 H       1  UNL1        0.0000
     50 H          16.0156   17.9963   18.3729 H       1  UNL1        0.0000
     51 C          12.0571   17.4200   19.1140 C.3     1  UNL1        0.0000
     52 H          11.7952   16.5663   19.7327 H       1  UNL1        0.0000
     53 H          11.2204   17.6224   18.4534 H       1  UNL1        0.0000
     54 H          12.1715   18.2744   19.7723 H       1  UNL1        0.0000
     55 C          13.2831   17.4051   16.2869 C.3     1  UNL1        0.0000
     56 H          14.1493   17.2592   15.6517 H       1  UNL1        0.0000
     57 H          12.9621   18.4339   16.1569 H       1  UNL1        0.0000
     58 H          12.4916   16.7699   15.9092 H       1  UNL1        0.0000
     59 C          19.9752   18.2911   14.6637 C.3     1  UNL1        0.0000
     60 H          19.6941   17.9405   13.6762 H       1  UNL1        0.0000
     61 H          20.9293   17.8395   14.9150 H       1  UNL1        0.0000
     62 H          20.1304   19.3632   14.5945 H       1  UNL1        0.0000
     63 C          19.0548   18.8018   17.5793 C.3     1  UNL1        0.0000
     64 H          18.4533   18.4412   18.4072 H       1  UNL1        0.0000
     65 H          18.8810   19.8697   17.4892 H       1  UNL1        0.0000
     66 H          20.0973   18.6642   17.8509 H       1  UNL1        0.0000
     67 C          16.9721   18.5330   15.2844 C.3     1  UNL1        0.0000
     68 H          16.1686   18.4040   15.9990 H       1  UNL1        0.0000
     69 H          16.6852   18.0368   14.3640 H       1  UNL1        0.0000
     70 H          17.0483   19.5952   15.0694 H       1  UNL1        0.0000
     71 C          20.0826   14.6274   13.8939 C.3     1  UNL1        0.0000
     72 H          20.9023   14.3173   14.5342 H       1  UNL1        0.0000
     73 H          20.3624   15.5706   13.4385 H       1  UNL1        0.0000
     74 H          19.9959   13.8941   13.0983 H       1  UNL1        0.0000
     75 C          18.0556   13.0452   15.5895 C.3     1  UNL1        0.0000
     76 H          18.8957   12.6588   16.1584 H       1  UNL1        0.0000
     77 H          17.8325   12.3262   14.8072 H       1  UNL1        0.0000
     78 H          17.2025   13.0842   16.2581 H       1  UNL1        0.0000
     79 C          17.0693   15.2662   13.6467 C.3     1  UNL1        0.0000
     80 H          16.1380   15.5001   14.1498 H       1  UNL1        0.0000
     81 H          16.8674   14.4559   12.9524 H       1  UNL1        0.0000
     82 H          17.3586   16.1317   13.0593 H       1  UNL1        0.0000
     83 C          20.7433   16.6175   20.8099 C.3     1  UNL1        0.0000
     84 H          21.3424   15.7487   20.5601 H       1  UNL1        0.0000
     85 H          21.3493   17.2590   21.4416 H       1  UNL1        0.0000
     86 H          20.5479   17.1621   19.8929 H       1  UNL1        0.0000
     87 C          19.5386   16.0773   23.5811 C.3     1  UNL1        0.0000
     88 H          20.4257   15.4873   23.7808 H       1  UNL1        0.0000
     89 H          18.7150   15.6645   24.1506 H       1  UNL1        0.0000
     90 H          19.7222   17.0791   23.9568 H       1  UNL1        0.0000
     91 C          17.8576   17.5403   21.3709 C.3     1  UNL1        0.0000
     92 H          17.4138   17.4296   20.3851 H       1  UNL1        0.0000
     93 H          18.3138   18.5247   21.4221 H       1  UNL1        0.0000
     94 H          17.0475   17.5166   22.0928 H       1  UNL1        0.0000
     95 C          20.3378   12.6651   19.3073 C.3     1  UNL1        0.0000
     96 H          21.1132   13.3925   19.0897 H       1  UNL1        0.0000
     97 H          19.5997   12.7328   18.5143 H       1  UNL1        0.0000
     98 H          20.7953   11.6814   19.2519 H       1  UNL1        0.0000
     99 C          21.0195   13.0935   22.2807 C.3     1  UNL1        0.0000
    100 H          21.6328   13.9703   22.1088 H       1  UNL1        0.0000
    101 H          21.6641   12.2226   22.2049 H       1  UNL1        0.0000
    102 H          20.6545   13.1404   23.3010 H       1  UNL1        0.0000
    103 C          18.6247   11.3660   21.5519 C.3     1  UNL1        0.0000
    104 H          18.7095   10.5806   20.8068 H       1  UNL1        0.0000
    105 H          17.5667   11.5536   21.7071 H       1  UNL1        0.0000
    106 H          19.0210   10.9696   22.4817 H       1  UNL1        0.0000
    107 C          14.3815   12.9481   24.5157 C.ar    1  UNL1        0.0000
    108 C          15.5412   12.9149   25.3104 C.ar    1  UNL1        0.0000
    109 C          15.4312   13.1273   26.6744 C.ar    1  UNL1        0.0000
    110 H          16.3276   13.1235   27.2773 H       1  UNL1        0.0000
    111 C          14.2010   13.3331   27.2851 C.ar    1  UNL1        0.0000
    112 C          13.0619   13.2649   26.5003 C.ar    1  UNL1        0.0000
    113 H          12.0890   13.3525   26.9648 H       1  UNL1        0.0000
    114 C          13.1264   13.0640   25.1263 C.ar    1  UNL1        0.0000
    115 C          16.8759   12.5809   24.7111 C.3     1  UNL1        0.0000
    116 H          16.9377   12.9089   23.6746 H       1  UNL1        0.0000
    117 H          17.0283   11.5003   24.7377 H       1  UNL1        0.0000
    118 H          17.6738   13.0551   25.2758 H       1  UNL1        0.0000
    119 C          14.1188   13.6010   28.7574 C.3     1  UNL1        0.0000
    120 H          14.7406   12.9000   29.3108 H       1  UNL1        0.0000
    121 H          13.0947   13.5182   29.1129 H       1  UNL1        0.0000
    122 H          14.4783   14.6070   28.9740 H       1  UNL1        0.0000
    123 C          11.8477   12.8910   24.3587 C.3     1  UNL1        0.0000
    124 H          11.0932   13.5950   24.7032 H       1  UNL1        0.0000
    125 H          11.4602   11.8850   24.5305 H       1  UNL1        0.0000
    126 H          11.9947   13.0174   23.2885 H       1  UNL1        0.0000
@<TRIPOS>BOND
     1    81    79    1
     2    82    79    1
     3    74    71    1
     4    73    71    1
     5    79    80    1
     6    79    32    1
     7    60    59    1
     8    71    72    1
     9    71    32    1
    10    69    67    1
    11    62    59    1
    12    59    61    1
    13    59    31    1
    14    77    75    1
    15    32    75    1
    16    32    25    1
    17    37    35    1
    18    70    67    1
    19    36    35    1
    20    67    31    1
    21    67    68    1
    22    75    76    1
    23    75    78    1
    24    38    35    1
    25    35    29    1
    26    56    55    1
    27    58    55    1
    28    31    25    1
    29    31    63    1
    30    57    55    1
    31    55    30    1
    32    25    26    1
    33    25    19    1
    34    18    17    1
    35    45    43    1
    36    46    43    1
    37    43    29    1
    38    43    44    1
    39    29    39    1
    40    29    23    1
    41    17    19   ar
    42    17    16   ar
    43    65    63    1
    44    19    20   ar
    45    63    66    1
    46    63    64    1
    47    41    39    1
    48    42    39    1
    49    49    47    1
    50    39    40    1
    51    30    23    1
    52    30    47    1
    53    30    51    1
    54     8     7    1
    55    50    47    1
    56    53    51    1
    57    23    16    1
    58    23    24    1
    59    16    15   ar
    60    97    95    1
    61    47    48    1
    62    20    21    1
    63    20    22   ar
    64     9     7    1
    65     7    10    1
    66     7     3    1
    67    96    95    1
    68    51    52    1
    69    51    54    1
    70    98    95    1
    71    95    34    1
    72    15    22   ar
    73    15     1    1
    74    22    27    1
    75    86    83    1
    76     3     1    1
    77     3     4    1
    78    92    91    1
    79    84    83    1
    80     5     4    1
    81   104   103    1
    82    83    85    1
    83    83    33    1
    84    34    27    1
    85    34   103    1
    86    34    99    1
    87    27    33    1
    88    27    28    1
    89     4     6    2
    90    91    93    1
    91    91    33    1
    92    91    94    1
    93   103   105    1
    94   103   106    1
    95    33    87    1
    96   100    99    1
    97   101    99    1
    98    99   102    1
    99     6     2    1
   100     6    11    1
   101    14    11    1
   102    12    11    1
   103     2   107    1
   104    11    13    1
   105   126   123    1
   106    87    88    1
   107    87    90    1
   108    87    89    1
   109   116   115    1
   110   123   125    1
   111   123   124    1
   112   123   114    1
   113   107   114   ar
   114   107   108   ar
   115   115   117    1
   116   115   118    1
   117   115   108    1
   118   114   112   ar
   119   108   109   ar
   120   112   113    1
   121   112   111   ar
   122   109   110    1
   123   109   111   ar
   124   111   119    1
   125   119   122    1
   126   119   121    1
   127   119   120    1
