@<TRIPOS>MOLECULE
2,22
 37 36 0 0 0
SMALL
GASTEIGER

@<TRIPOS>ATOM
      1 SI          2.2677    4.4511    2.6763 Si      1  UNL1        0.0000
      2 N           0.7865    4.0772    3.4564 N.3     1  UNL1        0.0000
      3 C           0.0116    5.1990    3.9657 C.3     1  UNL1        0.0000
      4 H           0.6491    5.8644    4.5683 H       1  UNL1        0.0000
      5 H          -0.7744    4.8093    4.6339 H       1  UNL1        0.0000
      6 C          -0.6441    6.0518    2.8575 C.3     1  UNL1        0.0000
      7 H           0.1154    6.6913    2.4021 H       1  UNL1        0.0000
      8 H          -1.4035    6.6914    3.3128 H       1  UNL1        0.0000
      9 C           3.3302    2.8639    2.5424 C.3     1  UNL1        0.0000
     10 H           3.6211    2.4638    3.5077 H       1  UNL1        0.0000
     11 H           4.2413    3.0960    2.0022 H       1  UNL1        0.0000
     12 H           2.8079    2.0998    1.9781 H       1  UNL1        0.0000
     13 C           2.2554    5.1832    0.8908 C.3     1  UNL1        0.0000
     14 H           1.7500    6.1433    0.8268 H       1  UNL1        0.0000
     15 H           1.7696    4.5043    0.1950 H       1  UNL1        0.0000
     16 H           3.2717    5.3318    0.5370 H       1  UNL1        0.0000
     17 C           3.2684    5.7066    3.7322 C.3     1  UNL1        0.0000
     18 H           2.8749    6.7129    3.6342 H       1  UNL1        0.0000
     19 H           4.3057    5.7324    3.4182 H       1  UNL1        0.0000
     20 H           3.2503    5.4468    4.7859 H       1  UNL1        0.0000
     21 C          -1.2998    5.1989    1.7492 C.3     1  UNL1        0.0000
     22 N          -2.0747    4.0771    2.2585 N.3     1  UNL1        0.0000
     23 SI         -3.5558    4.4510    3.0387 Si      1  UNL1        0.0000
     24 C          -4.6184    2.8639    3.1727 C.3     1  UNL1        0.0000
     25 H          -4.9087    2.4633    2.2074 H       1  UNL1        0.0000
     26 H          -5.5298    3.0963    3.7123 H       1  UNL1        0.0000
     27 H          -4.0963    2.1002    3.7377 H       1  UNL1        0.0000
     28 C          -3.5436    5.1833    4.8241 C.3     1  UNL1        0.0000
     29 H          -3.0382    6.1433    4.8881 H       1  UNL1        0.0000
     30 H          -3.0578    4.5043    5.5198 H       1  UNL1        0.0000
     31 H          -4.5599    5.3319    5.1780 H       1  UNL1        0.0000
     32 C          -4.5566    5.7065    1.9828 C.3     1  UNL1        0.0000
     33 H          -4.1632    6.7128    2.0808 H       1  UNL1        0.0000
     34 H          -5.5940    5.7323    2.2966 H       1  UNL1        0.0000
     35 H          -4.5384    5.4467    0.9290 H       1  UNL1        0.0000
     36 H          -1.9372    5.8644    1.1466 H       1  UNL1        0.0000
     37 H          -0.5138    4.8092    1.0809 H       1  UNL1        0.0000
@<TRIPOS>BOND
     1    15    13    1
     2    16    13    1
     3    14    13    1
     4    13     1    1
     5    35    32    1
     6    37    21    1
     7    36    21    1
     8    21    22    1
     9    21     6    1
    10    12     9    1
    11    32    33    1
    12    32    34    1
    13    32    23    1
    14    11     9    1
    15    25    24    1
    16    22    23    1
    17     7     6    1
    18     9     1    1
    19     9    10    1
    20     1     2    1
    21     1    17    1
    22     6     8    1
    23     6     3    1
    24    23    24    1
    25    23    28    1
    26    24    26    1
    27    24    27    1
    28    19    17    1
    29     2     3    1
    30    18    17    1
    31    17    20    1
    32     3     4    1
    33     3     5    1
    34    28    29    1
    35    28    31    1
    36    28    30    1
