@<TRIPOS>MOLECULE
4,39
 71 72 0 0 0
SMALL
GASTEIGER

@<TRIPOS>ATOM
      1 SI          3.5705    6.4346    4.8565 Si      1  UNL1        0.0000
      2 N           0.5397    8.5632    6.2363 N.3     1  UNL1        0.0000
      3 H           0.7480    9.3623    5.6267 H       1  UNL1        0.0000
      4 N           2.3657    7.6511    5.2528 N.3     1  UNL1        0.0000
      5 C          -0.4441    8.9016    7.2696 C.3     1  UNL1        0.0000
      6 C           0.2906    9.3470    8.5368 C.3     1  UNL1        0.0000
      7 H           0.7417    8.4985    9.0428 H       1  UNL1        0.0000
      8 H          -0.4036    9.8291    9.2195 H       1  UNL1        0.0000
      9 H           1.0764   10.0538    8.2791 H       1  UNL1        0.0000
     10 C          -1.3887    7.7348    7.5601 C.3     1  UNL1        0.0000
     11 H          -1.7961    7.3377    6.6336 H       1  UNL1        0.0000
     12 H          -2.2127    8.0889    8.1739 H       1  UNL1        0.0000
     13 H          -0.8871    6.9340    8.0941 H       1  UNL1        0.0000
     14 C          -1.2419   10.0748    6.6961 C.3     1  UNL1        0.0000
     15 H          -0.5794   10.9075    6.4737 H       1  UNL1        0.0000
     16 H          -1.9890   10.4077    7.4110 H       1  UNL1        0.0000
     17 H          -1.7482    9.7785    5.7806 H       1  UNL1        0.0000
     18 C           1.4175    7.5735    6.1472 C.3     1  UNL1        0.0000
     19 C           1.3310    6.3854    7.0281 C.ar    1  UNL1        0.0000
     20 C           2.0569    6.3871    8.2127 C.ar    1  UNL1        0.0000
     21 H           2.6442    7.2573    8.4675 H       1  UNL1        0.0000
     22 C           2.0513    5.2759    9.0449 C.ar    1  UNL1        0.0000
     23 C           1.3163    4.1582    8.6635 C.ar    1  UNL1        0.0000
     24 H           1.3043    3.2872    9.3026 H       1  UNL1        0.0000
     25 C           0.6109    4.1466    7.4733 C.ar    1  UNL1        0.0000
     26 H           0.0531    3.2677    7.1865 H       1  UNL1        0.0000
     27 C           0.6160    5.2576    6.6477 C.ar    1  UNL1        0.0000
     28 H           0.0639    5.2580    5.7206 H       1  UNL1        0.0000
     29 C           2.8151    5.2875   10.3321 C.3     1  UNL1        0.0000
     30 H           3.3028    4.3298   10.5006 H       1  UNL1        0.0000
     31 H           2.1369    5.4678   11.1664 H       1  UNL1        0.0000
     32 H           3.5646    6.0742   10.3273 H       1  UNL1        0.0000
     33 C           4.3367    5.3589    6.2277 C.3     1  UNL1        0.0000
     34 H           5.1891    4.8122    5.8376 H       1  UNL1        0.0000
     35 H           3.6234    4.6344    6.6022 H       1  UNL1        0.0000
     36 H           4.6780    5.9618    7.0635 H       1  UNL1        0.0000
     37 N           6.6040    8.5622    3.4815 N.3     1  UNL1        0.0000
     38 H           6.3943    9.3615    4.0903 H       1  UNL1        0.0000
     39 N           4.7757    7.6510    4.4614 N.3     1  UNL1        0.0000
     40 C           7.5887    8.9011    2.4492 C.3     1  UNL1        0.0000
     41 C           6.8549    9.3500    1.1827 C.3     1  UNL1        0.0000
     42 H           6.4009    8.5034    0.6763 H       1  UNL1        0.0000
     43 H           7.5503    9.8306    0.5001 H       1  UNL1        0.0000
     44 H           6.0715   10.0591    1.4415 H       1  UNL1        0.0000
     45 C           8.5319    7.7337    2.1567 C.3     1  UNL1        0.0000
     46 H           8.9378    7.3338    3.0825 H       1  UNL1        0.0000
     47 H           9.3569    8.0881    1.5444 H       1  UNL1        0.0000
     48 H           8.0295    6.9350    1.6203 H       1  UNL1        0.0000
     49 C           8.3878   10.0722    3.0253 C.3     1  UNL1        0.0000
     50 H           7.7263   10.9053    3.2490 H       1  UNL1        0.0000
     51 H           9.1356   10.4055    2.3113 H       1  UNL1        0.0000
     52 H           8.8935    9.7734    3.9404 H       1  UNL1        0.0000
     53 C           5.7257    7.5728    3.5689 C.3     1  UNL1        0.0000
     54 C           5.8136    6.3844    2.6885 C.ar    1  UNL1        0.0000
     55 C           5.0895    6.3854    1.5028 C.ar    1  UNL1        0.0000
     56 H           4.5023    7.2554    1.2468 H       1  UNL1        0.0000
     57 C           5.0970    5.2740    0.6709 C.ar    1  UNL1        0.0000
     58 C           5.8318    4.1568    1.0538 C.ar    1  UNL1        0.0000
     59 H           5.8453    3.2856    0.4150 H       1  UNL1        0.0000
     60 C           6.5353    4.1458    2.2451 C.ar    1  UNL1        0.0000
     61 H           7.0931    3.2672    2.5330 H       1  UNL1        0.0000
     62 C           6.5285    5.2571    3.0703 C.ar    1  UNL1        0.0000
     63 H           7.0793    5.2580    3.9983 H       1  UNL1        0.0000
     64 C           4.3353    5.2850   -0.6176 C.3     1  UNL1        0.0000
     65 H           3.8475    4.3274   -0.7862 H       1  UNL1        0.0000
     66 H           5.0150    5.4644   -1.4508 H       1  UNL1        0.0000
     67 H           3.5861    6.0719   -0.6146 H       1  UNL1        0.0000
     68 C           2.8041    5.3608    3.4838 C.3     1  UNL1        0.0000
     69 H           1.9508    4.8146    3.8726 H       1  UNL1        0.0000
     70 H           3.5170    4.6358    3.1092 H       1  UNL1        0.0000
     71 H           2.4641    5.9647    2.6481 H       1  UNL1        0.0000
@<TRIPOS>BOND
     1    66    64    1
     2    65    64    1
     3    64    67    1
     4    64    57    1
     5    59    58    1
     6    43    41    1
     7    57    58   ar
     8    57    55   ar
     9    42    41    1
    10    58    60   ar
    11    41    44    1
    12    41    40    1
    13    56    55    1
    14    55    54   ar
    15    47    45    1
    16    48    45    1
    17    45    40    1
    18    45    46    1
    19    60    61    1
    20    60    62   ar
    21    51    49    1
    22    40    49    1
    23    40    37    1
    24    71    68    1
    25    54    62   ar
    26    54    53    1
    27    49    50    1
    28    49    52    1
    29    62    63    1
    30    70    68    1
    31    37    53    1
    32    37    38    1
    33    68    69    1
    34    68     1    1
    35    53    39    1
    36    39     1    1
    37     1     4    1
    38     1    33    1
    39     4    18    1
    40     3     2    1
    41    28    27    1
    42    17    14    1
    43    34    33    1
    44    18     2    1
    45    18    19    1
    46    33    35    1
    47    33    36    1
    48     2     5    1
    49    15    14    1
    50    11    10    1
    51    27    19   ar
    52    27    25   ar
    53    14     5    1
    54    14    16    1
    55    19    20   ar
    56    26    25    1
    57     5    10    1
    58     5     6    1
    59    25    23   ar
    60    10    13    1
    61    10    12    1
    62    20    21    1
    63    20    22   ar
    64     9     6    1
    65     6     7    1
    66     6     8    1
    67    23    22   ar
    68    23    24    1
    69    22    29    1
    70    32    29    1
    71    29    30    1
    72    29    31    1
