@<TRIPOS>MOLECULE
3,4
 40 40 0 0 0
SMALL
GASTEIGER

@<TRIPOS>ATOM
      1 SI          1.8183    7.1425    1.7084 Si      1  UNL1        0.0000
      2 SI          6.0578    3.6240    1.4753 Si      1  UNL1        0.0000
      3 N           2.9165    5.8392    1.9713 N.3     1  UNL1        0.0000
      4 N           4.5428    4.3910    1.7851 N.3     1  UNL1        0.0000
      5 C           1.9995    8.3340    3.1986 C.3     1  UNL1        0.0000
      6 C           0.0494    6.4176    1.6634 C.3     1  UNL1        0.0000
      7 C           2.0489    8.1566    0.1014 C.3     1  UNL1        0.0000
      8 C           6.8820    4.0802   -0.1905 C.3     1  UNL1        0.0000
      9 C           7.2373    4.1084    2.9069 C.3     1  UNL1        0.0000
     10 C           5.7459    1.7382    1.4842 C.3     1  UNL1        0.0000
     11 C           3.9905    5.4708    1.3119 C.3     1  UNL1        0.0000
     12 C           4.5836    6.2690    0.2115 C.ar    1  UNL1        0.0000
     13 C           4.3005    6.0285   -1.1256 C.ar    1  UNL1        0.0000
     14 C           4.8863    6.8066   -2.1094 C.ar    1  UNL1        0.0000
     15 C           5.7578    7.8259   -1.7661 C.ar    1  UNL1        0.0000
     16 C           6.0476    8.0658   -0.4328 C.ar    1  UNL1        0.0000
     17 C           5.4635    7.2906    0.5525 C.ar    1  UNL1        0.0000
     18 H           1.1153    8.9504    3.3263 H       1  UNL1        0.0000
     19 H           2.8447    9.0053    3.0743 H       1  UNL1        0.0000
     20 H           2.1517    7.7657    4.1126 H       1  UNL1        0.0000
     21 H          -0.6974    7.1945    1.5303 H       1  UNL1        0.0000
     22 H          -0.1622    5.9018    2.5941 H       1  UNL1        0.0000
     23 H          -0.0671    5.6998    0.8565 H       1  UNL1        0.0000
     24 H           1.2865    8.9268    0.0420 H       1  UNL1        0.0000
     25 H           1.9603    7.5377   -0.7853 H       1  UNL1        0.0000
     26 H           3.0157    8.6466    0.0610 H       1  UNL1        0.0000
     27 H           7.7741    3.4802   -0.3367 H       1  UNL1        0.0000
     28 H           7.1757    5.1235   -0.2295 H       1  UNL1        0.0000
     29 H           6.2204    3.8951   -1.0302 H       1  UNL1        0.0000
     30 H           8.1534    3.5272    2.8866 H       1  UNL1        0.0000
     31 H           6.7481    3.9293    3.8616 H       1  UNL1        0.0000
     32 H           7.5107    5.1597    2.8659 H       1  UNL1        0.0000
     33 H           6.6704    1.1903    1.3310 H       1  UNL1        0.0000
     34 H           5.0492    1.4365    0.7077 H       1  UNL1        0.0000
     35 H           5.3325    1.4287    2.4392 H       1  UNL1        0.0000
     36 H           3.6224    5.2325   -1.3927 H       1  UNL1        0.0000
     37 H           4.6624    6.6171   -3.1492 H       1  UNL1        0.0000
     38 H           6.2126    8.4319   -2.5359 H       1  UNL1        0.0000
     39 H           6.7307    8.8578   -0.1614 H       1  UNL1        0.0000
     40 H           5.6862    7.4639    1.5963 H       1  UNL1        0.0000
@<TRIPOS>BOND
     1    37    14    1
     2    38    15    1
     3    14    15   ar
     4    14    13   ar
     5    15    16   ar
     6    36    13    1
     7    13    12   ar
     8    29     8    1
     9    25     7    1
    10    16    39    1
    11    16    17   ar
    12    27     8    1
    13    28     8    1
    14     8     2    1
    15    24     7    1
    16    26     7    1
    17     7     1    1
    18    12    17   ar
    19    12    11    1
    20    17    40    1
    21    34    10    1
    22    23     6    1
    23    11     4    1
    24    11     3    1
    25    33    10    1
    26     2    10    1
    27     2     4    1
    28     2     9    1
    29    10    35    1
    30    21     6    1
    31     6     1    1
    32     6    22    1
    33     1     3    1
    34     1     5    1
    35    32     9    1
    36    30     9    1
    37     9    31    1
    38    19     5    1
    39     5    18    1
    40     5    20    1
