@<TRIPOS>MOLECULE
3,4
 40 40 0 0 0
SMALL
GASTEIGER

@<TRIPOS>ATOM
      1 SI          0.9613    5.2003    5.9451 Si      1  UNL1        0.0000
      2 SI          1.2960    2.2959    1.3052 Si      1  UNL1        0.0000
      3 N           1.4558    4.6817    4.3655 N.3     1  UNL1        0.0000
      4 N           1.6171    3.4671    2.5373 N.3     1  UNL1        0.0000
      5 C           2.4994    6.0065    6.7407 C.3     1  UNL1        0.0000
      6 C           0.4236    3.7597    7.0902 C.3     1  UNL1        0.0000
      7 C          -0.4687    6.4656    5.7996 C.3     1  UNL1        0.0000
      8 C           2.0385    0.5984    1.8007 C.3     1  UNL1        0.0000
      9 C          -0.5769    2.0982    0.9523 C.3     1  UNL1        0.0000
     10 C           2.1402    2.9601   -0.2714 C.3     1  UNL1        0.0000
     11 C           0.9634    3.7028    3.6409 C.3     1  UNL1        0.0000
     12 C          -0.1956    2.8869    4.0721 C.ar    1  UNL1        0.0000
     13 C           0.0231    1.5968    4.5418 C.ar    1  UNL1        0.0000
     14 C          -1.0459    0.8164    4.9434 C.ar    1  UNL1        0.0000
     15 C          -2.3365    1.3149    4.8705 C.ar    1  UNL1        0.0000
     16 C          -2.5560    2.5992    4.4012 C.ar    1  UNL1        0.0000
     17 C          -1.4891    3.3875    4.0069 C.ar    1  UNL1        0.0000
     18 H           2.3133    6.2489    7.7822 H       1  UNL1        0.0000
     19 H           2.7835    6.9252    6.2363 H       1  UNL1        0.0000
     20 H           3.3510    5.3299    6.7005 H       1  UNL1        0.0000
     21 H           0.3896    4.0887    8.1241 H       1  UNL1        0.0000
     22 H           1.1255    2.9320    7.0312 H       1  UNL1        0.0000
     23 H          -0.5598    3.3770    6.8357 H       1  UNL1        0.0000
     24 H          -0.5381    7.0608    6.7039 H       1  UNL1        0.0000
     25 H          -1.4253    5.9708    5.6624 H       1  UNL1        0.0000
     26 H          -0.3202    7.1446    4.9658 H       1  UNL1        0.0000
     27 H           2.3848    0.0495    0.9306 H       1  UNL1        0.0000
     28 H           1.3088   -0.0247    2.3102 H       1  UNL1        0.0000
     29 H           2.8884    0.7316    2.4662 H       1  UNL1        0.0000
     30 H          -0.7266    1.5868    0.0070 H       1  UNL1        0.0000
     31 H          -1.0769    3.0600    0.8892 H       1  UNL1        0.0000
     32 H          -1.0774    1.5190    1.7216 H       1  UNL1        0.0000
     33 H           2.0294    2.2657   -1.0985 H       1  UNL1        0.0000
     34 H           3.2002    3.1152   -0.0947 H       1  UNL1        0.0000
     35 H           1.7086    3.9107   -0.5728 H       1  UNL1        0.0000
     36 H           1.0348    1.2213    4.6015 H       1  UNL1        0.0000
     37 H          -0.8732   -0.1833    5.3140 H       1  UNL1        0.0000
     38 H          -3.1709    0.7027    5.1799 H       1  UNL1        0.0000
     39 H          -3.5621    2.9881    4.3419 H       1  UNL1        0.0000
     40 H          -1.6576    4.3872    3.6351 H       1  UNL1        0.0000
@<TRIPOS>BOND
     1    33    10    1
     2    35    10    1
     3    10    34    1
     4    10     2    1
     5    30     9    1
     6    31     9    1
     7    27     8    1
     8     9     2    1
     9     9    32    1
    10     2     8    1
    11     2     4    1
    12     8    28    1
    13     8    29    1
    14     4    11    1
    15    40    17    1
    16    11    12    1
    17    11     3    1
    18    17    12   ar
    19    17    16   ar
    20    12    13   ar
    21    39    16    1
    22     3     1    1
    23    16    15   ar
    24    13    36    1
    25    13    14   ar
    26    15    14   ar
    27    15    38    1
    28    14    37    1
    29    26     7    1
    30    25     7    1
    31     7     1    1
    32     7    24    1
    33     1     5    1
    34     1     6    1
    35    19     5    1
    36    20     5    1
    37     5    18    1
    38    23     6    1
    39    22     6    1
    40     6    21    1
