@<TRIPOS>MOLECULE
1,5
 90 91 0 0 0
SMALL
GASTEIGER

@<TRIPOS>ATOM
      1 N           3.2767    9.9992    8.4347 N.pl3   1  UNL1       -0.2363
      2 C           3.5701    9.5181    7.2256 C.3     1  UNL1        0.1052
      3 C           4.6384    8.6284    7.0713 C.2     1  UNL1       -0.0367
      4 C           5.5157    8.0889    8.0139 C.2     1  UNL1        0.0348
      5 N           5.3856    8.4126    9.3053 N.pl3   1  UNL1       -0.2184
      6 C           2.5240   11.1359    8.7228 C.ar    1  UNL1        0.0557
      7 C           3.0393   12.4149    8.3945 C.ar    1  UNL1       -0.0219
      8 C           2.3362   13.5312    8.8102 C.ar    1  UNL1       -0.0565
      9 C           1.1478   13.4148    9.5141 C.ar    1  UNL1       -0.0611
     10 C           0.6194   12.1669    9.7783 C.ar    1  UNL1       -0.0565
     11 C           1.2818   11.0163    9.3798 C.ar    1  UNL1       -0.0219
     12 C           0.6470    9.6580    9.5976 C.3     1  UNL1       -0.0197
     13 C           0.5334    9.3270   11.0871 C.3     1  UNL1       -0.0586
     14 C          -0.7395    9.5780    8.9494 C.3     1  UNL1       -0.0586
     15 C           4.3101   12.5293    7.5713 C.3     1  UNL1       -0.0197
     16 C           4.4187   13.8539    6.8153 C.3     1  UNL1       -0.0586
     17 C           5.5800   12.3042    8.3994 C.3     1  UNL1       -0.0586
     18 C           2.6868    9.6952    5.9708 C.3     1  UNL1       -0.0086
     19 C           3.5341    9.9458    4.7097 C.3     1  UNL1       -0.0577
     20 C           1.9142    8.3738    5.8008 C.3     1  UNL1       -0.0577
     21 C           1.6510   10.8223    6.0317 C.3     1  UNL1       -0.0577
     22 C           6.6224    7.1907    7.4190 C.3     1  UNL1        0.0020
     23 C           6.0344    6.1855    6.4086 C.3     1  UNL1       -0.0548
     24 C           7.6089    8.1163    6.6860 C.3     1  UNL1       -0.0548
     25 C           7.4230    6.3586    8.4245 C.3     1  UNL1       -0.0548
     26 C           5.9409    7.7680   10.4093 C.ar    1  UNL1        0.0602
     27 C           5.3636    6.5610   10.8764 C.ar    1  UNL1       -0.0216
     28 C           5.7938    6.0474   12.0876 C.ar    1  UNL1       -0.0565
     29 C           6.7931    6.6733   12.8158 C.ar    1  UNL1       -0.0611
     30 C           7.4253    7.7922   12.3058 C.ar    1  UNL1       -0.0565
     31 C           7.0356    8.3442   11.0941 C.ar    1  UNL1       -0.0216
     32 C           7.8459    9.4557   10.4561 C.3     1  UNL1       -0.0197
     33 C           9.3233    9.0583   10.3375 C.3     1  UNL1       -0.0586
     34 C           7.7579   10.7755   11.2190 C.3     1  UNL1       -0.0586
     35 C           4.3268    5.8460   10.0296 C.3     1  UNL1       -0.0197
     36 C           2.8996    6.2995   10.3483 C.3     1  UNL1       -0.0586
     37 C           4.4212    4.3234   10.1484 C.3     1  UNL1       -0.0586
     38 H           4.7958    8.2888    6.0657 H       1  UNL1        0.0611
     39 H           2.7110   14.5178    8.5900 H       1  UNL1        0.0621
     40 H           0.6271   14.3034    9.8380 H       1  UNL1        0.0618
     41 H          -0.3236   12.0885   10.2980 H       1  UNL1        0.0621
     42 H           1.2852    8.9022    9.1195 H       1  UNL1        0.0344
     43 H           1.5112    9.3513   11.5657 H       1  UNL1        0.0235
     44 H           0.1012    8.3374   11.2218 H       1  UNL1        0.0235
     45 H          -0.1024   10.0490   11.5931 H       1  UNL1        0.0235
     46 H          -0.6948    9.8131    7.8884 H       1  UNL1        0.0235
     47 H          -1.1420    8.5728    9.0595 H       1  UNL1        0.0235
     48 H          -1.4289   10.2728    9.4215 H       1  UNL1        0.0235
     49 H           4.2826   11.7269    6.8280 H       1  UNL1        0.0344
     50 H           4.6209   14.6780    7.4951 H       1  UNL1        0.0235
     51 H           3.5048   14.0688    6.2653 H       1  UNL1        0.0235
     52 H           5.2408   13.8007    6.1042 H       1  UNL1        0.0235
     53 H           6.4432   12.2822    7.7374 H       1  UNL1        0.0235
     54 H           5.5214   11.3508    8.9325 H       1  UNL1        0.0235
     55 H           5.7249   13.1011    9.1219 H       1  UNL1        0.0235
     56 H           4.2675   10.7309    4.8796 H       1  UNL1        0.0236
     57 H           2.8861   10.2600    3.8939 H       1  UNL1        0.0236
     58 H           4.0577    9.0533    4.3794 H       1  UNL1        0.0236
     59 H           1.3186    8.4002    4.8901 H       1  UNL1        0.0236
     60 H           2.5941    7.5274    5.7440 H       1  UNL1        0.0236
     61 H           1.2443    8.2173    6.6440 H       1  UNL1        0.0236
     62 H           1.0303   10.7718    5.1374 H       1  UNL1        0.0236
     63 H           0.9985   10.7309    6.8920 H       1  UNL1        0.0236
     64 H           2.1186   11.8017    6.0569 H       1  UNL1        0.0236
     65 H           5.1551    5.6909    6.8162 H       1  UNL1        0.0238
     66 H           5.7598    6.6547    5.4683 H       1  UNL1        0.0238
     67 H           6.7764    5.4224    6.1825 H       1  UNL1        0.0238
     68 H           7.0919    8.7449    5.9654 H       1  UNL1        0.0238
     69 H           8.3552    7.5258    6.1575 H       1  UNL1        0.0238
     70 H           8.1226    8.7620    7.3945 H       1  UNL1        0.0238
     71 H           8.2324    5.8571    7.8946 H       1  UNL1        0.0238
     72 H           6.8084    5.5952    8.8913 H       1  UNL1        0.0238
     73 H           7.8643    6.9681    9.2018 H       1  UNL1        0.0238
     74 H           5.3518    5.1432   12.4756 H       1  UNL1        0.0621
     75 H           7.1025    6.2637   13.7657 H       1  UNL1        0.0618
     76 H           8.2440    8.2337   12.8531 H       1  UNL1        0.0621
     77 H           7.4481    9.6230    9.4483 H       1  UNL1        0.0344
     78 H           9.4509    8.0993    9.8412 H       1  UNL1        0.0235
     79 H           9.7837    8.9935   11.3200 H       1  UNL1        0.0235
     80 H           9.8588    9.8118    9.7637 H       1  UNL1        0.0235
     81 H           8.3806   11.5241   10.7346 H       1  UNL1        0.0235
     82 H           8.1032   10.6582   12.2422 H       1  UNL1        0.0235
     83 H           6.7362   11.1428   11.2391 H       1  UNL1        0.0235
     84 H           4.5178    6.1135    8.9850 H       1  UNL1        0.0344
     85 H           2.1990    5.8196    9.6678 H       1  UNL1        0.0235
     86 H           2.6275    6.0313   11.3658 H       1  UNL1        0.0235
     87 H           2.8132    7.3863   10.2279 H       1  UNL1        0.0235
     88 H           4.0467    3.9792   11.1093 H       1  UNL1        0.0235
     89 H           3.8204    3.8561    9.3705 H       1  UNL1        0.0235
     90 H           5.4491    3.9844   10.0378 H       1  UNL1        0.0235
@<TRIPOS>BOND
     1    57    19    1
     2    58    19    1
     3    19    56    1
     4    19    18    1
     5    59    20    1
     6    62    21    1
     7    66    23    1
     8    60    20    1
     9    20    18    1
    10    20    61    1
    11    68    24    1
    12    18    21    1
    13    18     2    1
    14    21    64    1
    15    21    63    1
    16    38     3    1
    17    52    16    1
    18    69    24    1
    19    67    23    1
    20    51    16    1
    21    23    65    1
    22    23    22    1
    23    24    70    1
    24    24    22    1
    25    16    50    1
    26    16    15    1
    27    49    15    1
    28     3     2    1
    29     3     4    2
    30     2     1    1
    31    22     4    1
    32    22    25    1
    33    15     7    1
    34    15    17    1
    35    53    17    1
    36    46    14    1
    37    71    25    1
    38     4     5    1
    39     7     6   ar
    40     7     8   ar
    41    17    54    1
    42    17    55    1
    43    25    72    1
    44    25    73    1
    45     1     6    1
    46    39     8    1
    47     6    11   ar
    48     8     9   ar
    49    14    47    1
    50    14    48    1
    51    14    12    1
    52    84    35    1
    53    42    12    1
    54     5    26    1
    55    89    37    1
    56    11    12    1
    57    11    10   ar
    58    77    32    1
    59     9    10   ar
    60     9    40    1
    61    12    13    1
    62    85    36    1
    63    80    33    1
    64    10    41    1
    65    78    33    1
    66    35    37    1
    67    35    36    1
    68    35    27    1
    69    90    37    1
    70    37    88    1
    71    87    36    1
    72    33    32    1
    73    33    79    1
    74    36    86    1
    75    26    27   ar
    76    26    31   ar
    77    32    31    1
    78    32    34    1
    79    81    34    1
    80    27    28   ar
    81    13    44    1
    82    13    43    1
    83    13    45    1
    84    31    30   ar
    85    34    83    1
    86    34    82    1
    87    28    74    1
    88    28    29   ar
    89    30    29   ar
    90    30    76    1
    91    29    75    1
