@<TRIPOS>MOLECULE
1,2
 37 36 0 0 0
SMALL
GASTEIGER

@<TRIPOS>ATOM
      1 N          -1.1704    2.3695    3.6734 N.3     1  UNL1        0.0000
      2 N          -2.8191    0.9364    2.4854 N.3     1  UNL1        0.0000
      3 SI         -1.2746    1.6207    2.1119 Si      1  UNL1        0.0000
      4 C          -0.5406    3.5970    4.0741 C.3     1  UNL1        0.0000
      5 C          -3.5440   -0.2014    1.9919 C.3     1  UNL1        0.0000
      6 C          -1.3376    2.7443    0.5515 C.3     1  UNL1        0.0000
      7 C           0.2077    0.4421    1.7828 C.3     1  UNL1        0.0000
      8 C          -0.7160    3.7093    5.6076 C.3     1  UNL1        0.0000
      9 C           0.9578    3.6149    3.7310 C.3     1  UNL1        0.0000
     10 C          -1.2181    4.8125    3.4045 C.3     1  UNL1        0.0000
     11 C          -4.7979   -0.3278    2.8879 C.3     1  UNL1        0.0000
     12 C          -3.9755    0.0022    0.5280 C.3     1  UNL1        0.0000
     13 C          -2.7336   -1.5093    2.0919 C.3     1  UNL1        0.0000
     14 H          -0.4316    3.3350    0.4579 H       1  UNL1        0.0000
     15 H          -2.1823    3.4264    0.5708 H       1  UNL1        0.0000
     16 H          -1.4228    2.1465   -0.3499 H       1  UNL1        0.0000
     17 H           1.1355    1.0001    1.7119 H       1  UNL1        0.0000
     18 H           0.0811   -0.0901    0.8454 H       1  UNL1        0.0000
     19 H           0.3281   -0.2937    2.5715 H       1  UNL1        0.0000
     20 H          -0.0491    3.0069    6.1052 H       1  UNL1        0.0000
     21 H          -1.7567    3.4501    5.8712 H       1  UNL1        0.0000
     22 H          -0.4835    4.7124    5.9617 H       1  UNL1        0.0000
     23 H           1.4413    2.7375    4.1515 H       1  UNL1        0.0000
     24 H           1.4342    4.5106    4.1232 H       1  UNL1        0.0000
     25 H           1.0840    3.5880    2.6530 H       1  UNL1        0.0000
     26 H          -2.2996    4.7457    3.5426 H       1  UNL1        0.0000
     27 H          -1.0110    4.8030    2.3391 H       1  UNL1        0.0000
     28 H          -0.8562    5.7497    3.8236 H       1  UNL1        0.0000
     29 H          -5.4262    0.5562    2.7632 H       1  UNL1        0.0000
     30 H          -4.4812   -0.3788    3.9413 H       1  UNL1        0.0000
     31 H          -5.3780   -1.2146    2.6344 H       1  UNL1        0.0000
     32 H          -4.5170    0.9399    0.4339 H       1  UNL1        0.0000
     33 H          -4.6095   -0.8143    0.1897 H       1  UNL1        0.0000
     34 H          -3.0939    0.0532   -0.1044 H       1  UNL1        0.0000
     35 H          -2.4373   -1.6888    3.1248 H       1  UNL1        0.0000
     36 H          -1.8367   -1.4308    1.4861 H       1  UNL1        0.0000
     37 H          -3.3226   -2.3549    1.7419 H       1  UNL1        0.0000
@<TRIPOS>BOND
     1    16     6    1
     2    34    12    1
     3    33    12    1
     4    32    12    1
     5    14     6    1
     6    12     5    1
     7     6    15    1
     8     6     3    1
     9    18     7    1
    10    36    13    1
    11    17     7    1
    12    37    13    1
    13     7     3    1
    14     7    19    1
    15     5    13    1
    16     5     2    1
    17     5    11    1
    18    13    35    1
    19     3     2    1
    20     3     1    1
    21    27    10    1
    22    31    11    1
    23    25     9    1
    24    29    11    1
    25    11    30    1
    26    10    26    1
    27    10    28    1
    28    10     4    1
    29     1     4    1
    30     9     4    1
    31     9    24    1
    32     9    23    1
    33     4     8    1
    34     8    21    1
    35     8    22    1
    36     8    20    1
