@<TRIPOS>MOLECULE
2,3
 37 36 0 0 0
SMALL
GASTEIGER

@<TRIPOS>ATOM
      1 SI         -4.7033    1.6199    6.5938 Si      1  UNL1        0.0000
      2 N          -4.8102    2.3641    5.0300 N.3     1  UNL1        0.0000
      3 N          -3.1552    0.9415    6.2238 N.3     1  UNL1        0.0000
      4 C          -4.6440    2.7455    8.1529 C.3     1  UNL1        0.0000
      5 C          -6.1833    0.4388    6.9233 C.3     1  UNL1        0.0000
      6 C          -5.4345    3.5941    4.6285 C.3     1  UNL1        0.0000
      7 C          -5.2540    3.7068    3.0957 C.3     1  UNL1        0.0000
      8 C          -6.9337    3.6168    4.9676 C.3     1  UNL1        0.0000
      9 C          -4.7542    4.8069    5.3003 C.3     1  UNL1        0.0000
     10 C          -2.4308   -0.1987    6.7126 C.3     1  UNL1        0.0000
     11 C          -1.1797   -0.3251    5.8124 C.3     1  UNL1        0.0000
     12 C          -1.9947    0.0013    8.1756 C.3     1  UNL1        0.0000
     13 C          -3.2431   -1.5053    6.6121 C.3     1  UNL1        0.0000
     14 H          -5.5510    3.3346    8.2451 H       1  UNL1        0.0000
     15 H          -3.8003    3.4289    8.1337 H       1  UNL1        0.0000
     16 H          -4.5585    2.1485    9.0549 H       1  UNL1        0.0000
     17 H          -7.1123    0.9951    6.9925 H       1  UNL1        0.0000
     18 H          -6.0566   -0.0918    7.8617 H       1  UNL1        0.0000
     19 H          -6.3017   -0.2984    6.1357 H       1  UNL1        0.0000
     20 H          -5.9189    3.0043    2.5958 H       1  UNL1        0.0000
     21 H          -4.2124    3.4480    2.8359 H       1  UNL1        0.0000
     22 H          -5.4857    4.7099    2.7409 H       1  UNL1        0.0000
     23 H          -7.4192    2.7419    4.5444 H       1  UNL1        0.0000
     24 H          -7.4059    4.5149    4.5757 H       1  UNL1        0.0000
     25 H          -7.0627    3.5886    6.0453 H       1  UNL1        0.0000
     26 H          -3.6724    4.7343    5.1669 H       1  UNL1        0.0000
     27 H          -4.9661    4.7994    6.3647 H       1  UNL1        0.0000
     28 H          -5.1096    5.7456    4.8789 H       1  UNL1        0.0000
     29 H          -0.5507    0.5586    5.9356 H       1  UNL1        0.0000
     30 H          -1.5001   -0.3754    4.7600 H       1  UNL1        0.0000
     31 H          -0.5991   -1.2123    6.0636 H       1  UNL1        0.0000
     32 H          -1.4502    0.9373    8.2698 H       1  UNL1        0.0000
     33 H          -1.3622   -0.8175    8.5110 H       1  UNL1        0.0000
     34 H          -2.8745    0.0539    8.8104 H       1  UNL1        0.0000
     35 H          -3.5442   -1.6810    5.5800 H       1  UNL1        0.0000
     36 H          -4.1372   -1.4278    7.2222 H       1  UNL1        0.0000
     37 H          -2.6535   -2.3526    6.9568 H       1  UNL1        0.0000
@<TRIPOS>BOND
     1    20     7    1
     2    22     7    1
     3    21     7    1
     4     7     6    1
     5    23     8    1
     6    24     8    1
     7     6     8    1
     8     6     2    1
     9     6     9    1
    10    30    11    1
    11    28     9    1
    12     8    25    1
    13     2     1    1
    14    26     9    1
    15     9    27    1
    16    35    13    1
    17    11    29    1
    18    11    31    1
    19    11    10    1
    20    19     5    1
    21     3     1    1
    22     3    10    1
    23     1     5    1
    24     1     4    1
    25    13    10    1
    26    13    37    1
    27    13    36    1
    28    10    12    1
    29     5    17    1
    30     5    18    1
    31    15     4    1
    32     4    14    1
    33     4    16    1
    34    12    32    1
    35    12    33    1
    36    12    34    1
