@<TRIPOS>MOLECULE
1,2
 81 83 0 0 0
SMALL
GASTEIGER

@<TRIPOS>ATOM
      1 N           0.8721    3.8238    5.5864 N.pl3   1  UNL1       -0.2365
      2 N           0.8224    3.9706    3.0643 N.pl3   1  UNL1       -0.2186
      3 N           3.8289    6.8757    5.0191 N.ar    1  UNL1       -0.2552
      4 C           0.4272    3.2444    6.7896 C.ar    1  UNL1        0.0557
      5 C          -0.7512    3.7260    7.3957 C.ar    1  UNL1       -0.0219
      6 C          -1.1576    3.1800    8.6012 C.ar    1  UNL1       -0.0565
      7 C          -0.4180    2.1829    9.2150 C.ar    1  UNL1       -0.0611
      8 C           0.7275    1.7029    8.6120 C.ar    1  UNL1       -0.0565
      9 C           1.1664    2.2187    7.4009 C.ar    1  UNL1       -0.0219
     10 C          -1.5569    4.7846    6.6805 C.3     1  UNL1       -0.0197
     11 C          -2.3760    5.6739    7.6140 C.3     1  UNL1       -0.0586
     12 C          -2.4665    4.0886    5.6634 C.3     1  UNL1       -0.0586
     13 C           2.4329    1.7046    6.7608 C.3     1  UNL1       -0.0197
     14 C           2.3145    0.2075    6.4711 C.3     1  UNL1       -0.0586
     15 C           3.6510    1.9985    7.6387 C.3     1  UNL1       -0.0586
     16 C           1.5684    4.9398    5.5910 C.3     1  UNL1        0.1059
     17 C           2.0108    5.5634    6.8900 C.3     1  UNL1       -0.0352
     18 C           1.8801    5.6135    4.3953 C.2     1  UNL1        0.0237
     19 C           1.5030    5.0934    3.1462 C.2     1  UNL1        0.0355
     20 C           1.9120    5.8149    1.8845 C.3     1  UNL1       -0.0242
     21 C           0.5569    3.3391    1.8373 C.ar    1  UNL1        0.0602
     22 C           1.5420    2.5249    1.2382 C.ar    1  UNL1       -0.0216
     23 C           1.2315    1.8534    0.0678 C.ar    1  UNL1       -0.0565
     24 C          -0.0088    1.9971   -0.5299 C.ar    1  UNL1       -0.0611
     25 C          -0.9590    2.8210    0.0409 C.ar    1  UNL1       -0.0565
     26 C          -0.6969    3.4990    1.2224 C.ar    1  UNL1       -0.0216
     27 C           2.8899    2.3761    1.9066 C.3     1  UNL1       -0.0197
     28 C           2.8032    1.2628    2.9529 C.3     1  UNL1       -0.0586
     29 C           4.0305    2.1045    0.9268 C.3     1  UNL1       -0.0586
     30 C          -1.7367    4.4114    1.8292 C.3     1  UNL1       -0.0197
     31 C          -2.0027    5.6058    0.9097 C.3     1  UNL1       -0.0586
     32 C          -3.0304    3.6496    2.1156 C.3     1  UNL1       -0.0586
     33 C           2.6192    6.8867    4.4590 C.ar    1  UNL1        0.0707
     34 C           4.5160    8.0000    5.0817 C.ar    1  UNL1        0.0282
     35 C           4.0561    9.2128    4.5948 C.ar    1  UNL1       -0.0436
     36 C           2.7910    9.2402    4.0244 C.ar    1  UNL1       -0.0583
     37 C           2.0640    8.0683    3.9559 C.ar    1  UNL1       -0.0359
     38 H          -2.0571    3.5350    9.0788 H       1  UNL1        0.0621
     39 H          -0.7432    1.7770   10.1613 H       1  UNL1        0.0618
     40 H           1.2935    0.9217    9.0965 H       1  UNL1        0.0621
     41 H          -0.8620    5.4239    6.1274 H       1  UNL1        0.0344
     42 H          -3.2044    5.1262    8.0566 H       1  UNL1        0.0235
     43 H          -2.7909    6.5094    7.0540 H       1  UNL1        0.0235
     44 H          -1.7527    6.0717    8.4117 H       1  UNL1        0.0235
     45 H          -1.8673    3.4744    4.9787 H       1  UNL1        0.0235
     46 H          -3.0219    4.8228    5.0854 H       1  UNL1        0.0235
     47 H          -3.1731    3.4401    6.1761 H       1  UNL1        0.0235
     48 H           2.5644    2.2295    5.8082 H       1  UNL1        0.0344
     49 H           2.2515   -0.3642    7.3939 H       1  UNL1        0.0235
     50 H           3.1823   -0.1389    5.9146 H       1  UNL1        0.0235
     51 H           1.4200    0.0138    5.8834 H       1  UNL1        0.0235
     52 H           3.7470    3.0680    7.8088 H       1  UNL1        0.0235
     53 H           4.5568    1.6453    7.1510 H       1  UNL1        0.0235
     54 H           3.5652    1.5028    8.6030 H       1  UNL1        0.0235
     55 H           1.7222    4.9503    7.7396 H       1  UNL1        0.0255
     56 H           1.5671    6.5524    7.0013 H       1  UNL1        0.0255
     57 H           3.0911    5.6862    6.8779 H       1  UNL1        0.0255
     58 H           2.8905    6.2735    2.0037 H       1  UNL1        0.0291
     59 H           1.1949    6.6010    1.6507 H       1  UNL1        0.0291
     60 H           1.9379    5.1274    1.0419 H       1  UNL1        0.0291
     61 H           1.9642    1.2113   -0.3948 H       1  UNL1        0.0621
     62 H          -0.2295    1.4693   -1.4459 H       1  UNL1        0.0618
     63 H          -1.9171    2.9387   -0.4426 H       1  UNL1        0.0621
     64 H           3.1156    3.3079    2.4340 H       1  UNL1        0.0344
     65 H           2.5421    0.3177    2.4819 H       1  UNL1        0.0235
     66 H           2.0336    1.5131    3.6900 H       1  UNL1        0.0235
     67 H           3.7556    1.1486    3.4647 H       1  UNL1        0.0235
     68 H           3.9680    1.1005    0.5140 H       1  UNL1        0.0235
     69 H           4.9836    2.1936    1.4433 H       1  UNL1        0.0235
     70 H           4.0164    2.8208    0.1083 H       1  UNL1        0.0235
     71 H          -1.3440    4.7842    2.7825 H       1  UNL1        0.0344
     72 H          -1.0787    6.1384    0.6969 H       1  UNL1        0.0235
     73 H          -2.7003    6.2958    1.3798 H       1  UNL1        0.0235
     74 H          -2.4303    5.2778   -0.0349 H       1  UNL1        0.0235
     75 H          -3.4825    3.2871    1.1959 H       1  UNL1        0.0235
     76 H          -3.7489    4.2983    2.6110 H       1  UNL1        0.0235
     77 H          -2.8248    2.7995    2.7606 H       1  UNL1        0.0235
     78 H           5.4919    7.9205    5.5461 H       1  UNL1        0.0830
     79 H           4.6594   10.1043    4.6663 H       1  UNL1        0.0633
     80 H           2.3782   10.1661    3.6476 H       1  UNL1        0.0619
     81 H           1.0678    8.0602    3.5404 H       1  UNL1        0.0639
@<TRIPOS>BOND
     1    62    24    1
     2    24    25   ar
     3    24    23   ar
     4    63    25    1
     5    61    23    1
     6    74    31    1
     7    25    26   ar
     8    23    22   ar
     9    70    29    1
    10    68    29    1
    11    72    31    1
    12    31    73    1
    13    31    30    1
    14    29    69    1
    15    29    27    1
    16    60    20    1
    17    75    32    1
    18    26    30    1
    19    26    21   ar
    20    22    21   ar
    21    22    27    1
    22    59    20    1
    23    30    32    1
    24    30    71    1
    25    21     2    1
    26    20    58    1
    27    20    19    1
    28    27    64    1
    29    27    28    1
    30    32    76    1
    31    32    77    1
    32    65    28    1
    33    28    67    1
    34    28    66    1
    35     2    19    1
    36    19    18    2
    37    81    37    1
    38    80    36    1
    39    37    36   ar
    40    37    33   ar
    41    36    35   ar
    42    18    33    1
    43    18    16    1
    44    33     3   ar
    45    35    79    1
    46    35    34   ar
    47    45    12    1
    48     3    34   ar
    49    34    78    1
    50    46    12    1
    51     1    16    1
    52     1     4    1
    53    16    17    1
    54    12    47    1
    55    12    10    1
    56    48    13    1
    57    51    14    1
    58    50    14    1
    59    41    10    1
    60    14    13    1
    61    14    49    1
    62    10     5    1
    63    10    11    1
    64    13     9    1
    65    13    15    1
    66     4     5   ar
    67     4     9   ar
    68    57    17    1
    69    17    56    1
    70    17    55    1
    71    43    11    1
    72    53    15    1
    73     5     6   ar
    74     9     8   ar
    75    11    42    1
    76    11    44    1
    77    15    52    1
    78    15    54    1
    79     6    38    1
    80     6     7   ar
    81     8    40    1
    82     8     7   ar
    83     7    39    1
