@<TRIPOS>MOLECULE
2,3
 72 73 0 0 0
SMALL
GASTEIGER

@<TRIPOS>ATOM
      1 SI          5.3880   13.0598   10.8082 Si      1  UNL1        0.0000
      2 N           2.8014   14.2184   11.2096 N.pl3   1  UNL1        0.0000
      3 N           5.1903   14.0651    9.4377 N.pl3   1  UNL1        0.0000
      4 C           1.8461   14.5761   12.1877 C.ar    1  UNL1        0.0000
      5 C           0.5553   14.0189   12.1666 C.ar    1  UNL1        0.0000
      6 C          -0.3654   14.3894   13.1354 C.ar    1  UNL1        0.0000
      7 H          -1.3584   13.9633   13.1231 H       1  UNL1        0.0000
      8 C          -0.0333   15.2979   14.1212 C.ar    1  UNL1        0.0000
      9 H          -0.7618   15.5803   14.8672 H       1  UNL1        0.0000
     10 C           1.2355   15.8471   14.1471 C.ar    1  UNL1        0.0000
     11 H           1.4836   16.5636   14.9159 H       1  UNL1        0.0000
     12 C           2.1852   15.4899   13.2038 C.ar    1  UNL1        0.0000
     13 C           3.5560   16.1293   13.2009 C.3     1  UNL1        0.0000
     14 H           4.2157   15.5061   12.5871 H       1  UNL1        0.0000
     15 C           3.4592   17.5078   12.5380 C.3     1  UNL1        0.0000
     16 H           3.1316   17.3981   11.4985 H       1  UNL1        0.0000
     17 H           4.4269   18.0061   12.5572 H       1  UNL1        0.0000
     18 H           2.7395   18.1320   13.0649 H       1  UNL1        0.0000
     19 C           4.1692   16.2375   14.5968 C.3     1  UNL1        0.0000
     20 H           3.6451   16.9701   15.2057 H       1  UNL1        0.0000
     21 H           5.2101   16.5468   14.5223 H       1  UNL1        0.0000
     22 H           4.1319   15.2762   15.1044 H       1  UNL1        0.0000
     23 C           0.1746   13.0257   11.0914 C.3     1  UNL1        0.0000
     24 H           1.0312   12.9358   10.4106 H       1  UNL1        0.0000
     25 C          -0.1107   11.6563   11.7136 C.3     1  UNL1        0.0000
     26 H           0.7594   11.3019   12.2618 H       1  UNL1        0.0000
     27 H          -0.3590   10.9250   10.9454 H       1  UNL1        0.0000
     28 H          -0.9473   11.7157   12.4061 H       1  UNL1        0.0000
     29 C          -1.0263   13.5132   10.2774 C.3     1  UNL1        0.0000
     30 H          -1.8998   13.6472   10.9111 H       1  UNL1        0.0000
     31 H          -1.2779   12.7880    9.5051 H       1  UNL1        0.0000
     32 H          -0.7959   14.4647    9.8022 H       1  UNL1        0.0000
     33 C           3.6519   13.1127   11.6571 C.3     1  UNL1        0.0000
     34 H           3.1323   12.1536   11.4884 H       1  UNL1        0.0000
     35 H           3.7893   13.1717   12.7453 H       1  UNL1        0.0000
     36 C           5.7558   11.1767   10.6242 C.3     1  UNL1        0.0000
     37 H           5.1578   10.6860    9.8619 H       1  UNL1        0.0000
     38 H           5.5521   10.6729   11.5651 H       1  UNL1        0.0000
     39 H           6.7976   10.9991   10.3849 H       1  UNL1        0.0000
     40 C           6.7528   13.6432   12.0292 C.3     1  UNL1        0.0000
     41 H           7.6857   13.7851   11.4919 H       1  UNL1        0.0000
     42 H           6.9321   12.9038   12.8032 H       1  UNL1        0.0000
     43 H           6.5088   14.5797   12.5206 H       1  UNL1        0.0000
     44 C           6.2456   14.5651    8.6635 C.ar    1  UNL1        0.0000
     45 C           6.7361   15.8732    8.8794 C.ar    1  UNL1        0.0000
     46 C           7.7329   16.3839    8.0627 C.ar    1  UNL1        0.0000
     47 H           8.0969   17.3875    8.2294 H       1  UNL1        0.0000
     48 C           8.2809   15.6339    7.0406 C.ar    1  UNL1        0.0000
     49 H           9.0566   16.0466    6.4127 H       1  UNL1        0.0000
     50 C           7.8268   14.3455    6.8410 C.ar    1  UNL1        0.0000
     51 H           8.2610   13.7522    6.0496 H       1  UNL1        0.0000
     52 C           6.8279   13.7995    7.6312 C.ar    1  UNL1        0.0000
     53 C           6.3881   12.3787    7.3683 C.3     1  UNL1        0.0000
     54 H           5.5985   12.1442    8.0846 H       1  UNL1        0.0000
     55 C           7.5547   11.4126    7.5892 C.3     1  UNL1        0.0000
     56 H           8.3121   11.5397    6.8192 H       1  UNL1        0.0000
     57 H           7.2070   10.3819    7.5595 H       1  UNL1        0.0000
     58 H           8.0188   11.5967    8.5545 H       1  UNL1        0.0000
     59 C           5.8304   12.2041    5.9531 C.3     1  UNL1        0.0000
     60 H           4.9941   12.8772    5.7829 H       1  UNL1        0.0000
     61 H           5.4937   11.1783    5.8071 H       1  UNL1        0.0000
     62 H           6.5913   12.4179    5.2063 H       1  UNL1        0.0000
     63 C           6.1936   16.7486    9.9905 C.3     1  UNL1        0.0000
     64 H           5.4627   16.1605   10.5730 H       1  UNL1        0.0000
     65 C           5.4831   17.9805    9.4138 C.3     1  UNL1        0.0000
     66 H           6.1543   18.5340    8.7598 H       1  UNL1        0.0000
     67 H           5.1692   18.6473   10.2150 H       1  UNL1        0.0000
     68 H           4.6012   17.6888    8.8360 H       1  UNL1        0.0000
     69 C           7.3129   17.1808   10.9429 C.3     1  UNL1        0.0000
     70 H           7.8704   16.3162   11.2922 H       1  UNL1        0.0000
     71 H           6.8970   17.6975   11.8059 H       1  UNL1        0.0000
     72 H           8.0064   17.8559   10.4473 H       1  UNL1        0.0000
@<TRIPOS>BOND
     1    62    59    1
     2    60    59    1
     3    61    59    1
     4    59    53    1
     5    51    50    1
     6    49    48    1
     7    56    55    1
     8    50    48   ar
     9    50    52   ar
    10    48    46   ar
    11    53    55    1
    12    53    52    1
    13    53    54    1
    14    57    55    1
    15    55    58    1
    16    52    44   ar
    17    46    47    1
    18    46    45   ar
    19    44    45   ar
    20    44     3    1
    21    66    65    1
    22    68    65    1
    23    45    63    1
    24    65    63    1
    25    65    67    1
    26     3     1    1
    27    31    29    1
    28    32    29    1
    29    37    36    1
    30    63    64    1
    31    63    69    1
    32    29    30    1
    33    29    23    1
    34    39    36    1
    35    24    23    1
    36    72    69    1
    37    36     1    1
    38    36    38    1
    39     1    33    1
    40     1    40    1
    41    69    70    1
    42    69    71    1
    43    27    25    1
    44    23    25    1
    45    23     5    1
    46     2    33    1
    47     2     4    1
    48    34    33    1
    49    41    40    1
    50    16    15    1
    51    33    35    1
    52    25    26    1
    53    25    28    1
    54    40    43    1
    55    40    42    1
    56     5     4   ar
    57     5     6   ar
    58     4    12   ar
    59    15    17    1
    60    15    18    1
    61    15    13    1
    62    14    13    1
    63     7     6    1
    64     6     8   ar
    65    13    12    1
    66    13    19    1
    67    12    10   ar
    68     8    10   ar
    69     8     9    1
    70    10    11    1
    71    21    19    1
    72    19    22    1
    73    19    20    1
