@<TRIPOS>MOLECULE
3,13
 51 52 0 0 0
SMALL
GASTEIGER

@<TRIPOS>ATOM
      1 SI          3.7811    0.2379    7.9964 Si      1  UNL1        0.0000
      2 SI          2.4133    2.8652    8.7843 Si      1  UNL1        0.0000
      3 N           4.0796    3.8153   12.6899 N.pl3   1  UNL1        0.0000
      4 C           5.0111    3.5758   11.7519 C.2     1  UNL1        0.0000
      5 C           4.4482    4.0358   13.9443 C.2     1  UNL1        0.0000
      6 H           3.6413    4.2300   14.6470 H       1  UNL1        0.0000
      7 C           6.3652    3.5346   12.0722 C.2     1  UNL1        0.0000
      8 H           7.1004    3.3158   11.3145 H       1  UNL1        0.0000
      9 C           6.7519    3.7670   13.3831 C.2     1  UNL1        0.0000
     10 H           7.7970    3.7442   13.6535 H       1  UNL1        0.0000
     11 C           5.7808    4.0259   14.3374 C.2     1  UNL1        0.0000
     12 H           6.0451    4.2143   15.3654 H       1  UNL1        0.0000
     13 N           3.1811    3.1301   10.3374 N.pl3   1  UNL1        0.0000
     14 C           4.4644    3.3295   10.3949 C.2     1  UNL1        0.0000
     15 C           4.9341    2.7347    8.0707 C.2     1  UNL1        0.0000
     16 C           5.2980    3.3327    9.2460 C.2     1  UNL1        0.0000
     17 H           6.2531    3.8243    9.3197 H       1  UNL1        0.0000
     18 C           5.7766    2.9580    6.8246 C.3     1  UNL1        0.0000
     19 C           5.2091    2.2328    5.6053 C.3     1  UNL1        0.0000
     20 H           5.3377    1.1601    5.6829 H       1  UNL1        0.0000
     21 H           5.7229    2.5745    4.7097 H       1  UNL1        0.0000
     22 H           4.1491    2.4437    5.5019 H       1  UNL1        0.0000
     23 C           7.2460    2.5721    7.0256 C.3     1  UNL1        0.0000
     24 H           7.3410    1.5304    7.3137 H       1  UNL1        0.0000
     25 H           7.7154    3.1860    7.7891 H       1  UNL1        0.0000
     26 H           7.7897    2.7217    6.0956 H       1  UNL1        0.0000
     27 C           5.6948    4.4705    6.5381 C.3     1  UNL1        0.0000
     28 H           6.2935    4.7054    5.6609 H       1  UNL1        0.0000
     29 H           6.0641    5.0586    7.3729 H       1  UNL1        0.0000
     30 H           4.6668    4.7620    6.3430 H       1  UNL1        0.0000
     31 N           3.7675    2.0212    7.9804 N.pl3   1  UNL1        0.0000
     32 C           2.1171    4.5446    7.9292 C.3     1  UNL1        0.0000
     33 H           2.9115    5.2530    8.1594 H       1  UNL1        0.0000
     34 H           1.1914    4.9789    8.3018 H       1  UNL1        0.0000
     35 H           2.0338    4.4552    6.8499 H       1  UNL1        0.0000
     36 C           0.8817    1.7704    8.9865 C.3     1  UNL1        0.0000
     37 H           0.8991    0.8845    8.3652 H       1  UNL1        0.0000
     38 H           0.0025    2.3481    8.7230 H       1  UNL1        0.0000
     39 H           0.7614    1.4664   10.0259 H       1  UNL1        0.0000
     40 C           5.5512   -0.4742    7.9059 C.3     1  UNL1        0.0000
     41 H           6.0346   -0.3617    6.9428 H       1  UNL1        0.0000
     42 H           5.5040   -1.5400    8.1079 H       1  UNL1        0.0000
     43 H           6.1934   -0.0315    8.6618 H       1  UNL1        0.0000
     44 C           2.7310   -0.2930    6.4963 C.3     1  UNL1        0.0000
     45 H           1.9636    0.4377    6.2625 H       1  UNL1        0.0000
     46 H           2.2406   -1.2401    6.6955 H       1  UNL1        0.0000
     47 H           3.3339   -0.4295    5.6043 H       1  UNL1        0.0000
     48 C           3.1256   -0.4113    9.6681 C.3     1  UNL1        0.0000
     49 H           3.0314    0.3758   10.4127 H       1  UNL1        0.0000
     50 H           3.7879   -1.1679   10.0802 H       1  UNL1        0.0000
     51 H           2.1485   -0.8717    9.5689 H       1  UNL1        0.0000
@<TRIPOS>BOND
     1    21    19    1
     2    22    19    1
     3    47    44    1
     4    19    20    1
     5    19    18    1
     6    28    27    1
     7    26    23    1
     8    45    44    1
     9    30    27    1
    10    44    46    1
    11    44     1    1
    12    27    18    1
    13    27    29    1
    14    18    23    1
    15    18    15    1
    16    35    32    1
    17    41    40    1
    18    23    24    1
    19    23    25    1
    20    40     1    1
    21    40    42    1
    22    40    43    1
    23    32    33    1
    24    32    34    1
    25    32     2    1
    26    31     1    1
    27    31    15    1
    28    31     2    1
    29     1    48    1
    30    15    16    2
    31    37    36    1
    32    38    36    1
    33     2    36    1
    34     2    13    1
    35    36    39    1
    36    16    17    1
    37    16    14    1
    38    51    48    1
    39    48    50    1
    40    48    49    1
    41    13    14    1
    42    14     4    2
    43     8     7    1
    44     4     7    1
    45     4     3    1
    46     7     9    2
    47     3     5    1
    48     9    10    1
    49     9    11    1
    50     5    11    2
    51     5     6    1
    52    11    12    1
