@<TRIPOS>MOLECULE
6,7
 60 59 0 0 0
SMALL
GASTEIGER

@<TRIPOS>ATOM
      1 P           2.1684    1.9144    3.8632 P.3     1  UNL1        0.0000
      2 SI          4.9512    1.7624    5.1581 Si      1  UNL1        0.0000
      3 SI         -0.6646    2.6555    4.6219 Si      1  UNL1        0.0000
      4 SI          2.4310    3.9036    1.8615 Si      1  UNL1        0.0000
      5 SI          2.7845    0.9023    1.1077 Si      1  UNL1        0.0000
      6 N           3.4962    2.4795    4.5937 N.3     1  UNL1        0.0000
      7 N           1.0388    2.9010    4.4716 N.3     1  UNL1        0.0000
      8 N           2.2932    2.1670    2.2224 N.3     1  UNL1        0.0000
      9 C           4.8854   -0.0689    5.7297 C.3     1  UNL1        0.0000
     10 C           5.4451    2.7630    6.7185 C.3     1  UNL1        0.0000
     11 C           6.3280    1.9356    3.8379 C.3     1  UNL1        0.0000
     12 C          -1.1254    2.2837    6.4464 C.3     1  UNL1        0.0000
     13 C          -1.6529    4.2027    4.0663 C.3     1  UNL1        0.0000
     14 C          -1.2835    1.2367    3.4944 C.3     1  UNL1        0.0000
     15 C           1.7749    0.1608    4.1924 C.3     1  UNL1        0.0000
     16 C           1.5654    5.2397    2.9129 C.3     1  UNL1        0.0000
     17 C           1.5348    4.0947    0.1808 C.3     1  UNL1        0.0000
     18 C           4.2863    4.3635    1.8511 C.3     1  UNL1        0.0000
     19 C           3.9724    1.5545   -0.2409 C.3     1  UNL1        0.0000
     20 C           3.7774   -0.5441    1.8665 C.3     1  UNL1        0.0000
     21 C           1.1827    0.2284    0.3085 C.3     1  UNL1        0.0000
     22 H           5.7764   -0.2995    6.3054 H       1  UNL1        0.0000
     23 H           4.8533   -0.7731    4.9037 H       1  UNL1        0.0000
     24 H           4.0276   -0.2515    6.3703 H       1  UNL1        0.0000
     25 H           4.6973    2.6463    7.5056 H       1  UNL1        0.0000
     26 H           5.5585    3.8208    6.4896 H       1  UNL1        0.0000
     27 H           6.3936    2.4156    7.1178 H       1  UNL1        0.0000
     28 H           7.2196    1.4060    4.1548 H       1  UNL1        0.0000
     29 H           6.5972    2.9759    3.6900 H       1  UNL1        0.0000
     30 H           6.0256    1.5342    2.8763 H       1  UNL1        0.0000
     31 H          -0.8700    3.1332    7.0776 H       1  UNL1        0.0000
     32 H          -0.6087    1.4136    6.8429 H       1  UNL1        0.0000
     33 H          -2.1924    2.1111    6.5465 H       1  UNL1        0.0000
     34 H          -2.6884    4.0779    4.3659 H       1  UNL1        0.0000
     35 H          -1.6446    4.3331    2.9880 H       1  UNL1        0.0000
     36 H          -1.2908    5.1150    4.5289 H       1  UNL1        0.0000
     37 H          -0.7270    1.2184    2.5630 H       1  UNL1        0.0000
     38 H          -2.3298    1.3854    3.2519 H       1  UNL1        0.0000
     39 H          -1.1971    0.2639    3.9654 H       1  UNL1        0.0000
     40 H           1.2683    0.1283    5.1558 H       1  UNL1        0.0000
     41 H           2.6779   -0.4326    4.2552 H       1  UNL1        0.0000
     42 H           1.1218   -0.2288    3.4198 H       1  UNL1        0.0000
     43 H           1.8342    5.1805    3.9713 H       1  UNL1        0.0000
     44 H           1.8689    6.2205    2.5501 H       1  UNL1        0.0000
     45 H           0.4836    5.1827    2.8461 H       1  UNL1        0.0000
     46 H           1.7424    3.2972   -0.5193 H       1  UNL1        0.0000
     47 H           1.8458    5.0261   -0.2768 H       1  UNL1        0.0000
     48 H           0.4581    4.1435    0.3090 H       1  UNL1        0.0000
     49 H           4.6212    4.5686    2.8664 H       1  UNL1        0.0000
     50 H           4.4573    5.2602    1.2636 H       1  UNL1        0.0000
     51 H           4.9168    3.5776    1.4514 H       1  UNL1        0.0000
     52 H           3.7575    2.5618   -0.5720 H       1  UNL1        0.0000
     53 H           3.9156    0.9022   -1.1065 H       1  UNL1        0.0000
     54 H           5.0025    1.5358    0.1024 H       1  UNL1        0.0000
     55 H           4.3905   -0.2126    2.6980 H       1  UNL1        0.0000
     56 H           4.4442   -0.9564    1.1144 H       1  UNL1        0.0000
     57 H           3.1475   -1.3586    2.2073 H       1  UNL1        0.0000
     58 H           1.4228   -0.4682   -0.4882 H       1  UNL1        0.0000
     59 H           0.5871    1.0276   -0.1212 H       1  UNL1        0.0000
     60 H           0.5526   -0.2988    1.0193 H       1  UNL1        0.0000
@<TRIPOS>BOND
     1    53    19    1
     2    52    19    1
     3    46    17    1
     4    58    21    1
     5    47    17    1
     6    19    54    1
     7    19     5    1
     8    59    21    1
     9    17    48    1
    10    17     4    1
    11    21    60    1
    12    21     5    1
    13     5    20    1
    14     5     8    1
    15    56    20    1
    16    50    18    1
    17    51    18    1
    18    18     4    1
    19    18    49    1
    20     4     8    1
    21     4    16    1
    22    20    57    1
    23    20    55    1
    24     8     1    1
    25    44    16    1
    26    37    14    1
    27    45    16    1
    28    30    11    1
    29    16    43    1
    30    35    13    1
    31    38    14    1
    32    42    15    1
    33    14    39    1
    34    14     3    1
    35    29    11    1
    36    11    28    1
    37    11     2    1
    38     1    15    1
    39     1     7    1
    40     1     6    1
    41    13    34    1
    42    13    36    1
    43    13     3    1
    44    15    41    1
    45    15    40    1
    46     7     3    1
    47     6     2    1
    48     3    12    1
    49    23     9    1
    50     2     9    1
    51     2    10    1
    52     9    22    1
    53     9    24    1
    54    12    33    1
    55    12    32    1
    56    12    31    1
    57    26    10    1
    58    10    27    1
    59    10    25    1
