@<TRIPOS>MOLECULE
1,2
 64 65 0 0 0
SMALL
GASTEIGER

@<TRIPOS>ATOM
      1 N           0.6683    9.2298   14.7961 N.pl3   1  UNL1       -0.2208
      2 N           1.6464    9.6158   17.4088 N.pl3   1  UNL1       -0.2208
      3 C          -0.0558    9.9195   15.7483 C.2     1  UNL1        0.0331
      4 H          -1.0548   10.2584   15.4894 H       1  UNL1        0.0815
      5 C           0.4256   10.1232   17.0039 C.2     1  UNL1        0.0331
      6 H          -0.1664   10.6691   17.7352 H       1  UNL1        0.0815
      7 C           0.3208    9.4007   13.4628 C.ar    1  UNL1        0.0599
      8 C           0.1098   10.6814   12.8845 C.ar    1  UNL1       -0.0216
      9 C          -0.1712   10.7819   11.5309 C.ar    1  UNL1       -0.0565
     10 H          -0.3386   11.7575   11.0991 H       1  UNL1        0.0621
     11 C          -0.2313    9.6730   10.7099 C.ar    1  UNL1       -0.0611
     12 H          -0.4385    9.7805    9.6555 H       1  UNL1        0.0618
     13 C          -0.0337    8.4236   11.2657 C.ar    1  UNL1       -0.0565
     14 H          -0.0978    7.5508   10.6320 H       1  UNL1        0.0621
     15 C           0.2165    8.2675   12.6179 C.ar    1  UNL1       -0.0216
     16 C           0.2182   11.9765   13.6660 C.3     1  UNL1       -0.0197
     17 H           0.6043   11.7559   14.6640 H       1  UNL1        0.0344
     18 C           1.1780   12.9720   13.0026 C.3     1  UNL1       -0.0586
     19 H           0.7488   13.3870   12.0941 H       1  UNL1        0.0235
     20 H           2.1233   12.4993   12.7452 H       1  UNL1        0.0235
     21 H           1.3781   13.7981   13.6828 H       1  UNL1        0.0235
     22 C          -1.1560   12.6342   13.8254 C.3     1  UNL1       -0.0586
     23 H          -1.8495   11.9683   14.3328 H       1  UNL1        0.0235
     24 H          -1.5766   12.8811   12.8530 H       1  UNL1        0.0235
     25 H          -1.0706   13.5496   14.4082 H       1  UNL1        0.0235
     26 C           0.3294    6.8614   13.1672 C.3     1  UNL1       -0.0197
     27 H           0.4354    6.9181   14.2613 H       1  UNL1        0.0344
     28 C          -0.9390    6.0554   12.8744 C.3     1  UNL1       -0.0586
     29 H          -0.8852    5.0828   13.3602 H       1  UNL1        0.0235
     30 H          -1.0687    5.8951   11.8068 H       1  UNL1        0.0235
     31 H          -1.8145    6.5815   13.2489 H       1  UNL1        0.0235
     32 C           1.5650    6.1543   12.6056 C.3     1  UNL1       -0.0586
     33 H           2.4624    6.7155   12.8643 H       1  UNL1        0.0235
     34 H           1.5037    6.0721   11.5219 H       1  UNL1        0.0235
     35 H           1.6560    5.1552   13.0264 H       1  UNL1        0.0235
     36 C           2.2664   10.2450   18.4848 C.ar    1  UNL1        0.0599
     37 C           2.6179    9.5021   19.6352 C.ar    1  UNL1       -0.0216
     38 C           3.2103   10.1463   20.7077 C.ar    1  UNL1       -0.0565
     39 H           3.4566    9.5941   21.6016 H       1  UNL1        0.0621
     40 C           3.4744   11.5051   20.6733 C.ar    1  UNL1       -0.0611
     41 H           3.9207   11.9935   21.5271 H       1  UNL1        0.0618
     42 C           3.1663   12.2276   19.5376 C.ar    1  UNL1       -0.0565
     43 H           3.3880   13.2847   19.5105 H       1  UNL1        0.0621
     44 C           2.5798   11.6235   18.4368 C.ar    1  UNL1       -0.0216
     45 C           2.2763    8.0282   19.6985 C.3     1  UNL1       -0.0197
     46 H           2.4325    7.5987   18.6913 H       1  UNL1        0.0344
     47 C           0.7938    7.8664   20.0539 C.3     1  UNL1       -0.0586
     48 H           0.1718    8.3681   19.3163 H       1  UNL1        0.0235
     49 H           0.5933    8.3048   21.0302 H       1  UNL1        0.0235
     50 H           0.5199    6.8134   20.0804 H       1  UNL1        0.0235
     51 C           3.1380    7.2414   20.6854 C.3     1  UNL1       -0.0586
     52 H           2.9744    6.1737   20.5527 H       1  UNL1        0.0235
     53 H           2.8809    7.4875   21.7134 H       1  UNL1        0.0235
     54 H           4.1945    7.4460   20.5297 H       1  UNL1        0.0235
     55 C           2.3374   12.4436   17.1862 C.3     1  UNL1       -0.0197
     56 H           2.0314   11.7629   16.3858 H       1  UNL1        0.0344
     57 C           1.2222   13.4686   17.4037 C.3     1  UNL1       -0.0586
     58 H           1.0552   14.0440   16.4950 H       1  UNL1        0.0235
     59 H           1.4860   14.1565   18.2042 H       1  UNL1        0.0235
     60 H           0.2929   12.9725   17.6705 H       1  UNL1        0.0235
     61 C           3.6101   13.1553   16.7153 C.3     1  UNL1       -0.0586
     62 H           3.9370   13.9007   17.4358 H       1  UNL1        0.0235
     63 H           3.4200   13.6598   15.7694 H       1  UNL1        0.0235
     64 H           4.4217   12.4453   16.5659 H       1  UNL1        0.0235
@<TRIPOS>BOND
     1    12    11    1
     2    14    13    1
     3    11    13   ar
     4    11     9   ar
     5    10     9    1
     6    13    15   ar
     7    34    32    1
     8     9     8   ar
     9    30    28    1
    10    19    18    1
    11    32    33    1
    12    32    35    1
    13    32    26    1
    14    15    26    1
    15    15     7   ar
    16    20    18    1
    17    24    22    1
    18    28    26    1
    19    28    31    1
    20    28    29    1
    21     8     7   ar
    22     8    16    1
    23    18    16    1
    24    18    21    1
    25    26    27    1
    26     7     1    1
    27    16    22    1
    28    16    17    1
    29    22    23    1
    30    22    25    1
    31     1     3    1
    32     4     3    1
    33     3     5    2
    34    63    61    1
    35    56    55    1
    36    58    57    1
    37    64    61    1
    38    61    55    1
    39    61    62    1
    40     5     2    1
    41     5     6    1
    42    55    57    1
    43    55    44    1
    44    57    60    1
    45    57    59    1
    46     2    36    1
    47    44    36   ar
    48    44    42   ar
    49    36    37   ar
    50    46    45    1
    51    48    47    1
    52    43    42    1
    53    42    40   ar
    54    37    45    1
    55    37    38   ar
    56    45    47    1
    57    45    51    1
    58    47    50    1
    59    47    49    1
    60    54    51    1
    61    52    51    1
    62    40    38   ar
    63    40    41    1
    64    51    53    1
    65    38    39    1
