@<TRIPOS>MOLECULE
1,5
 90 91 0 0 0
SMALL
GASTEIGER

@<TRIPOS>ATOM
      1 N           5.3671    5.9560    4.4379 N.pl3   1  UNL1       -0.2363
      2 C           5.8693    7.0542    4.9332 C.3     1  UNL1        0.1052
      3 C           7.2433    7.0373    5.3500 C.2     1  UNL1       -0.0367
      4 C           7.8833    6.0246    6.0738 C.2     1  UNL1        0.0348
      5 N           7.2821    4.8356    6.2671 N.pl3   1  UNL1       -0.2184
      6 C           4.0328    5.6722    4.0649 C.ar    1  UNL1        0.0557
      7 C           3.5503    5.8911    2.7572 C.ar    1  UNL1       -0.0219
      8 C           2.2858    5.4326    2.4131 C.ar    1  UNL1       -0.0565
      9 C           1.4849    4.7659    3.3158 C.ar    1  UNL1       -0.0611
     10 C           1.9470    4.5705    4.6009 C.ar    1  UNL1       -0.0565
     11 C           3.1967    5.0228    4.9946 C.ar    1  UNL1       -0.0219
     12 C           3.6592    4.7568    6.4086 C.3     1  UNL1       -0.0197
     13 C           4.1357    3.3071    6.5042 C.3     1  UNL1       -0.0586
     14 C           2.5701    5.0279    7.4485 C.3     1  UNL1       -0.0586
     15 C           4.3415    6.6120    1.6876 C.3     1  UNL1       -0.0197
     16 C           4.6405    5.6810    0.5074 C.3     1  UNL1       -0.0586
     17 C           3.6001    7.8509    1.1687 C.3     1  UNL1       -0.0586
     18 C           5.1651    8.4144    5.0970 C.3     1  UNL1       -0.0086
     19 C           3.6370    8.3389    5.0409 C.3     1  UNL1       -0.0577
     20 C           5.6637    9.3625    3.9944 C.3     1  UNL1       -0.0577
     21 C           5.5208    9.0177    6.4666 C.3     1  UNL1       -0.0577
     22 C           9.3463    6.3129    6.4905 C.3     1  UNL1        0.0020
     23 C          10.1611    6.3510    5.1848 C.3     1  UNL1       -0.0548
     24 C           9.5347    7.6698    7.1880 C.3     1  UNL1       -0.0548
     25 C           9.9380    5.1961    7.3532 C.3     1  UNL1       -0.0548
     26 C           7.2422    4.1033    7.4559 C.ar    1  UNL1        0.0602
     27 C           7.3249    2.6894    7.4176 C.ar    1  UNL1       -0.0216
     28 C           7.1711    1.9442    8.5756 C.ar    1  UNL1       -0.0565
     29 C           6.8998    2.5397    9.7893 C.ar    1  UNL1       -0.0611
     30 C           6.7834    3.9122    9.8326 C.ar    1  UNL1       -0.0565
     31 C           6.9546    4.7084    8.7091 C.ar    1  UNL1       -0.0216
     32 C           6.7892    6.1992    8.9305 C.3     1  UNL1       -0.0197
     33 C           5.3509    6.5495    9.3265 C.3     1  UNL1       -0.0586
     34 C           7.7248    6.7156   10.0330 C.3     1  UNL1       -0.0586
     35 C           7.6097    1.9227    6.1443 C.3     1  UNL1       -0.0197
     36 C           9.0523    1.4030    6.1538 C.3     1  UNL1       -0.0586
     37 C           6.6610    0.7300    5.9567 C.3     1  UNL1       -0.0586
     38 H           7.7588    7.9846    5.2961 H       1  UNL1        0.0611
     39 H           1.9220    5.5983    1.4111 H       1  UNL1        0.0621
     40 H           0.5107    4.4058    3.0226 H       1  UNL1        0.0618
     41 H           1.3216    4.0515    5.3094 H       1  UNL1        0.0621
     42 H           4.5197    5.4006    6.6219 H       1  UNL1        0.0344
     43 H           3.3262    2.6247    6.2507 H       1  UNL1        0.0235
     44 H           4.9610    3.1623    5.8052 H       1  UNL1        0.0235
     45 H           4.4820    3.0859    7.5114 H       1  UNL1        0.0235
     46 H           2.9755    4.9020    8.4498 H       1  UNL1        0.0235
     47 H           1.7425    4.3320    7.3441 H       1  UNL1        0.0235
     48 H           2.1787    6.0395    7.3545 H       1  UNL1        0.0235
     49 H           5.2908    6.9348    2.1195 H       1  UNL1        0.0344
     50 H           5.2913    6.1832   -0.2057 H       1  UNL1        0.0235
     51 H           3.7230    5.4061   -0.0079 H       1  UNL1        0.0235
     52 H           5.1287    4.7701    0.8469 H       1  UNL1        0.0235
     53 H           2.6920    7.5697    0.6416 H       1  UNL1        0.0235
     54 H           4.2372    8.3949    0.4740 H       1  UNL1        0.0235
     55 H           3.3224    8.5233    1.9770 H       1  UNL1        0.0235
     56 H           3.2750    8.0061    4.0755 H       1  UNL1        0.0236
     57 H           3.2259    9.3293    5.2316 H       1  UNL1        0.0236
     58 H           3.2553    7.6635    5.8019 H       1  UNL1        0.0236
     59 H           5.4082    8.9855    3.0089 H       1  UNL1        0.0236
     60 H           5.1979   10.3384    4.1169 H       1  UNL1        0.0236
     61 H           6.7419    9.4945    4.0403 H       1  UNL1        0.0236
     62 H           4.9849    9.9557    6.5981 H       1  UNL1        0.0236
     63 H           5.2241    8.3431    7.2639 H       1  UNL1        0.0236
     64 H           6.5813    9.2258    6.5667 H       1  UNL1        0.0236
     65 H           9.7587    7.0789    4.4833 H       1  UNL1        0.0238
     66 H          11.1897    6.6284    5.4120 H       1  UNL1        0.0238
     67 H          10.1702    5.3725    4.7068 H       1  UNL1        0.0238
     68 H           9.4343    8.4934    6.4848 H       1  UNL1        0.0238
     69 H           8.8293    7.8209    7.9961 H       1  UNL1        0.0238
     70 H          10.5390    7.7200    7.6037 H       1  UNL1        0.0238
     71 H          10.9993    5.3830    7.5066 H       1  UNL1        0.0238
     72 H           9.4597    5.1257    8.3246 H       1  UNL1        0.0238
     73 H           9.8353    4.2380    6.8473 H       1  UNL1        0.0238
     74 H           7.2649    0.8710    8.5277 H       1  UNL1        0.0621
     75 H           6.7784    1.9473   10.6833 H       1  UNL1        0.0618
     76 H           6.5558    4.3827   10.7771 H       1  UNL1        0.0621
     77 H           7.0159    6.7237    8.0002 H       1  UNL1        0.0344
     78 H           4.6656    6.3558    8.5087 H       1  UNL1        0.0235
     79 H           5.0309    5.9647   10.1855 H       1  UNL1        0.0235
     80 H           5.2846    7.6036    9.5925 H       1  UNL1        0.0235
     81 H           7.4068    6.3529   11.0071 H       1  UNL1        0.0235
     82 H           7.7005    7.8041   10.0646 H       1  UNL1        0.0235
     83 H           8.7516    6.3958    9.8774 H       1  UNL1        0.0235
     84 H           7.4808    2.6058    5.2819 H       1  UNL1        0.0344
     85 H           9.7671    2.2213    6.1675 H       1  UNL1        0.0235
     86 H           9.2418    0.8137    5.2603 H       1  UNL1        0.0235
     87 H           9.2234    0.7791    7.0290 H       1  UNL1        0.0235
     88 H           6.7243    0.3750    4.9313 H       1  UNL1        0.0235
     89 H           6.9379   -0.0944    6.6095 H       1  UNL1        0.0235
     90 H           5.6304    1.0003    6.1722 H       1  UNL1        0.0235
@<TRIPOS>BOND
     1    50    16    1
     2    51    16    1
     3    54    17    1
     4    16    52    1
     5    16    15    1
     6    53    17    1
     7    17    15    1
     8    17    55    1
     9    39     8    1
    10    15    49    1
    11    15     7    1
    12     8     7   ar
    13     8     9   ar
    14     7     6   ar
    15    59    20    1
    16    40     9    1
    17     9    10   ar
    18    20    61    1
    19    20    60    1
    20    20    18    1
    21     6     1    1
    22     6    11   ar
    23    56    19    1
    24     1     2    1
    25    65    23    1
    26    10    11   ar
    27    10    41    1
    28    67    23    1
    29    88    37    1
    30     2    18    1
    31     2     3    1
    32    11    12    1
    33    19    18    1
    34    19    57    1
    35    19    58    1
    36    18    21    1
    37    23    66    1
    38    23    22    1
    39    86    36    1
    40    84    35    1
    41    38     3    1
    42     3     4    2
    43    44    13    1
    44    37    35    1
    45    37    90    1
    46    37    89    1
    47     4     5    1
    48     4    22    1
    49    35    36    1
    50    35    27    1
    51    36    85    1
    52    36    87    1
    53    43    13    1
    54     5    26    1
    55    12    13    1
    56    12    42    1
    57    12    14    1
    58    21    64    1
    59    21    62    1
    60    21    63    1
    61    68    24    1
    62    22    24    1
    63    22    25    1
    64    13    45    1
    65    73    25    1
    66    24    70    1
    67    24    69    1
    68    47    14    1
    69    25    71    1
    70    25    72    1
    71    48    14    1
    72    27    26   ar
    73    27    28   ar
    74    14    46    1
    75    26    31   ar
    76    77    32    1
    77    78    33    1
    78    74    28    1
    79    28    29   ar
    80    31    32    1
    81    31    30   ar
    82    32    33    1
    83    32    34    1
    84    33    80    1
    85    33    79    1
    86    29    30   ar
    87    29    75    1
    88    30    76    1
    89    83    34    1
    90    34    82    1
    91    34    81    1
