@<TRIPOS>MOLECULE
1,12
 20 21 0 0 0
SMALL
GASTEIGER

@<TRIPOS>ATOM
      1 N          12.9421    6.5351   11.8270 N.pl3   1  UNL1       -0.2208
      2 C          13.2808    7.7614   11.3472 C.2     1  UNL1        0.0759
      3 C          12.9365    8.9295   12.0461 C.2     1  UNL1       -0.0368
      4 H          13.2137    9.8980   11.6625 H       1  UNL1        0.0637
      5 C          12.2448    8.8381   13.2322 C.2     1  UNL1       -0.0587
      6 H          11.9686    9.7277   13.7773 H       1  UNL1        0.0619
      7 C          11.9151    7.5716   13.7228 C.2     1  UNL1       -0.0459
      8 H          11.3809    7.4598   14.6521 H       1  UNL1        0.0631
      9 C          12.2894    6.4648   12.9912 C.2     1  UNL1        0.0174
     10 H          12.0654    5.4604   13.3368 H       1  UNL1        0.0802
     11 C          14.0211    7.7612   10.0959 C.2     1  UNL1        0.0759
     12 N          14.3602    6.5347    9.6170 N.pl3   1  UNL1       -0.2208
     13 C          15.0126    6.4638    8.4525 C.2     1  UNL1        0.0174
     14 C          15.3866    7.5703    7.7203 C.2     1  UNL1       -0.0459
     15 C          15.0562    8.8370    8.2099 C.2     1  UNL1       -0.0587
     16 C          14.3643    8.9289    9.3958 C.2     1  UNL1       -0.0368
     17 H          14.0858    9.8975    9.7782 H       1  UNL1        0.0637
     18 H          15.3319    9.7263    7.6640 H       1  UNL1        0.0619
     19 H          15.9218    7.4579    6.7916 H       1  UNL1        0.0631
     20 H          15.2378    5.4593    8.1082 H       1  UNL1        0.0802
@<TRIPOS>BOND
     1    19    14    1
     2    18    15    1
     3    14    15    1
     4    14    13    2
     5    20    13    1
     6    15    16    2
     7    13    12    1
     8    16    17    1
     9    16    11    1
    10    12    11    1
    11    11     2    2
    12     2     1    1
    13     2     3    1
    14     4     3    1
    15     1     9    1
    16     3     5    2
    17     9    10    1
    18     9     7    2
    19     5     7    1
    20     5     6    1
    21     7     8    1
