@<TRIPOS>MOLECULE
4,5
 51 52 0 0 0
SMALL
GASTEIGER

@<TRIPOS>ATOM
      1 P           2.8983    5.1048    3.4365 P.3     1  UNL1        0.0000
      2 SI          5.0360    3.1792    4.5678 Si      1  UNL1        0.0000
      3 SI          1.3104    5.7525    0.8138 Si      1  UNL1        0.0000
      4 N           3.7666    3.7678    3.5747 N.3     1  UNL1        0.0000
      5 N           2.3545    4.9830    1.9350 N.3     1  UNL1        0.0000
      6 C           3.9046    6.6103    3.6463 C.ar    1  UNL1        0.0000
      7 C           3.8368    7.4641    4.7371 C.ar    1  UNL1        0.0000
      8 H           3.1214    7.2743    5.5256 H       1  UNL1        0.0000
      9 C           4.6887    8.5532    4.8124 C.ar    1  UNL1        0.0000
     10 H           4.6352    9.2216    5.6611 H       1  UNL1        0.0000
     11 C           5.6111    8.7856    3.8055 C.ar    1  UNL1        0.0000
     12 H           6.2744    9.6371    3.8696 H       1  UNL1        0.0000
     13 C           5.6881    7.9249    2.7206 C.ar    1  UNL1        0.0000
     14 H           6.4136    8.1016    1.9399 H       1  UNL1        0.0000
     15 C           4.8371    6.8381    2.6405 C.ar    1  UNL1        0.0000
     16 H           4.8825    6.1453    1.8076 H       1  UNL1        0.0000
     17 C           1.5681    5.1936    4.6853 C.ar    1  UNL1        0.0000
     18 C           1.3617    4.1205    5.5403 C.ar    1  UNL1        0.0000
     19 H           2.0269    3.2713    5.4783 H       1  UNL1        0.0000
     20 C           0.3076    4.1444    6.4366 C.ar    1  UNL1        0.0000
     21 H           0.1421    3.3053    7.0965 H       1  UNL1        0.0000
     22 C          -0.5423    5.2376    6.4795 C.ar    1  UNL1        0.0000
     23 H          -1.3693    5.2538    7.1759 H       1  UNL1        0.0000
     24 C          -0.3399    6.3093    5.6239 C.ar    1  UNL1        0.0000
     25 H          -1.0074    7.1598    5.6544 H       1  UNL1        0.0000
     26 C           0.7116    6.2865    4.7257 C.ar    1  UNL1        0.0000
     27 H           0.8774    7.1107    4.0469 H       1  UNL1        0.0000
     28 C           5.4486    4.4399    5.9535 C.3     1  UNL1        0.0000
     29 H           4.5526    4.7404    6.4883 H       1  UNL1        0.0000
     30 H           5.9016    5.3365    5.5427 H       1  UNL1        0.0000
     31 H           6.1410    4.0151    6.6718 H       1  UNL1        0.0000
     32 C           6.5760    2.9049    3.4697 C.3     1  UNL1        0.0000
     33 H           7.4502    2.6225    4.0492 H       1  UNL1        0.0000
     34 H           6.8170    3.8003    2.9006 H       1  UNL1        0.0000
     35 H           6.3751    2.1122    2.7513 H       1  UNL1        0.0000
     36 C           4.4232    1.5467    5.3693 C.3     1  UNL1        0.0000
     37 H           3.7256    1.0497    4.6962 H       1  UNL1        0.0000
     38 H           3.9212    1.7106    6.3197 H       1  UNL1        0.0000
     39 H           5.2492    0.8653    5.5459 H       1  UNL1        0.0000
     40 C           0.9372    7.5803    1.2761 C.3     1  UNL1        0.0000
     41 H           0.7385    8.1604    0.3818 H       1  UNL1        0.0000
     42 H           1.7782    8.0388    1.7882 H       1  UNL1        0.0000
     43 H           0.0644    7.6605    1.9154 H       1  UNL1        0.0000
     44 C          -0.3259    4.7620    0.7405 C.3     1  UNL1        0.0000
     45 H          -0.8061    4.7229    1.7162 H       1  UNL1        0.0000
     46 H          -0.1138    3.7354    0.4445 H       1  UNL1        0.0000
     47 H          -1.0327    5.1785    0.0291 H       1  UNL1        0.0000
     48 C           2.2563    5.7491   -0.8496 C.3     1  UNL1        0.0000
     49 H           1.7155    6.2808   -1.6270 H       1  UNL1        0.0000
     50 H           2.4131    4.7269   -1.1887 H       1  UNL1        0.0000
     51 H           3.2373    6.2072   -0.7444 H       1  UNL1        0.0000
@<TRIPOS>BOND
     1    49    48    1
     2    50    48    1
     3    48    51    1
     4    48     3    1
     5    47    44    1
     6    41    40    1
     7    46    44    1
     8    44     3    1
     9    44    45    1
    10     3    40    1
    11     3     5    1
    12    40    42    1
    13    40    43    1
    14    16    15    1
    15     5     1    1
    16    14    13    1
    17    15    13   ar
    18    15     6   ar
    19    13    11   ar
    20    35    32    1
    21    34    32    1
    22     1     4    1
    23     1     6    1
    24     1    17    1
    25    32    33    1
    26    32     2    1
    27     4     2    1
    28     6     7   ar
    29    11    12    1
    30    11     9   ar
    31    27    26    1
    32     2    36    1
    33     2    28    1
    34    17    26   ar
    35    17    18   ar
    36    37    36    1
    37    26    24   ar
    38     7     9   ar
    39     7     8    1
    40     9    10    1
    41    36    39    1
    42    36    38    1
    43    19    18    1
    44    18    20   ar
    45    30    28    1
    46    24    25    1
    47    24    22   ar
    48    28    29    1
    49    28    31    1
    50    20    22   ar
    51    20    21    1
    52    22    23    1
