@<TRIPOS>MOLECULE
1,2
 50 49 0 0 0
SMALL
GASTEIGER

@<TRIPOS>ATOM
      1 N           0.0176   11.1940    2.1326 N.3     1  UNL1        0.0000
      2 N           1.5127   11.1409    3.7300 N.3     1  UNL1        0.0000
      3 C           1.2920   11.0714    2.4351 C.3     1  UNL1        0.0000
      4 N           2.3004   10.8377    1.4778 N.3     1  UNL1        0.0000
      5 C          -0.5011   11.1769    0.7877 C.3     1  UNL1        0.0000
      6 H           0.3250   11.3100    0.0699 H       1  UNL1        0.0000
      7 C          -1.5009   12.3293    0.6452 C.3     1  UNL1        0.0000
      8 H          -0.9942   13.2895    0.7135 H       1  UNL1        0.0000
      9 H          -2.2246   12.2656    1.4597 H       1  UNL1        0.0000
     10 H          -2.0183   12.2746   -0.3101 H       1  UNL1        0.0000
     11 C          -1.2075    9.8465    0.5000 C.3     1  UNL1        0.0000
     12 H          -0.5050    9.0203    0.5597 H       1  UNL1        0.0000
     13 H          -1.6509    9.8614   -0.4938 H       1  UNL1        0.0000
     14 H          -1.9910    9.6922    1.2394 H       1  UNL1        0.0000
     15 C           2.8295   11.1234    4.3248 C.3     1  UNL1        0.0000
     16 H           3.5837   10.9843    3.5350 H       1  UNL1        0.0000
     17 C           3.0691   12.4607    5.0375 C.3     1  UNL1        0.0000
     18 H           3.0412   13.2847    4.3256 H       1  UNL1        0.0000
     19 H           4.0366   12.4591    5.5345 H       1  UNL1        0.0000
     20 H           2.2863   12.6101    5.7821 H       1  UNL1        0.0000
     21 C           2.9394    9.9741    5.3323 C.3     1  UNL1        0.0000
     22 H           2.7807    9.0181    4.8364 H       1  UNL1        0.0000
     23 H           2.1891   10.1058    6.1119 H       1  UNL1        0.0000
     24 H           3.9264    9.9710    5.7902 H       1  UNL1        0.0000
     25 SI          2.5946    9.1372    1.1498 Si      1  UNL1        0.0000
     26 C           1.4866    8.0574    2.2674 C.3     1  UNL1        0.0000
     27 H           0.6725    8.6380    2.7018 H       1  UNL1        0.0000
     28 H           2.0568    7.6239    3.0846 H       1  UNL1        0.0000
     29 H           1.0514    7.2303    1.7128 H       1  UNL1        0.0000
     30 C           2.2389    8.7409   -0.6854 C.3     1  UNL1        0.0000
     31 H           3.0380    9.1014   -1.3236 H       1  UNL1        0.0000
     32 H           1.3120    9.1761   -1.0442 H       1  UNL1        0.0000
     33 H           2.1756    7.6665   -0.8287 H       1  UNL1        0.0000
     34 C           4.4254    8.7186    1.4896 C.3     1  UNL1        0.0000
     35 H           5.0819    9.2358    0.7975 H       1  UNL1        0.0000
     36 H           4.5920    7.6544    1.3568 H       1  UNL1        0.0000
     37 H           4.7345    8.9753    2.4982 H       1  UNL1        0.0000
     38 SI          3.1439   12.2331    0.8384 Si      1  UNL1        0.0000
     39 C           3.2779   12.0785   -1.0561 C.3     1  UNL1        0.0000
     40 H           4.0073   11.3266   -1.3360 H       1  UNL1        0.0000
     41 H           3.6072   13.0213   -1.4804 H       1  UNL1        0.0000
     42 H           2.3361   11.8173   -1.5266 H       1  UNL1        0.0000
     43 C           4.9121   12.4238    1.5401 C.3     1  UNL1        0.0000
     44 H           5.4631   11.4895    1.5160 H       1  UNL1        0.0000
     45 H           4.9164   12.7812    2.5655 H       1  UNL1        0.0000
     46 H           5.4674   13.1425    0.9446 H       1  UNL1        0.0000
     47 C           2.1539   13.7962    1.2858 C.3     1  UNL1        0.0000
     48 H           1.8703   13.7813    2.3351 H       1  UNL1        0.0000
     49 H           1.2438   13.8780    0.6998 H       1  UNL1        0.0000
     50 H           2.7383   14.6949    1.1127 H       1  UNL1        0.0000
@<TRIPOS>BOND
     1    42    39    1
     2    41    39    1
     3    40    39    1
     4    31    30    1
     5    39    38    1
     6    32    30    1
     7    33    30    1
     8    30    25    1
     9    13    11    1
    10    10     7    1
    11     6     5    1
    12    11    12    1
    13    11     5    1
    14    11    14    1
    15     7     8    1
    16     7     5    1
    17     7     9    1
    18    49    47    1
    19     5     1    1
    20    35    34    1
    21    38    47    1
    22    38     4    1
    23    38    43    1
    24    46    43    1
    25    50    47    1
    26    25     4    1
    27    25    34    1
    28    25    26    1
    29    47    48    1
    30    36    34    1
    31     4     3    1
    32    34    37    1
    33    44    43    1
    34    43    45    1
    35    29    26    1
    36     1     3    1
    37    26    27    1
    38    26    28    1
    39     3     2    1
    40    16    15    1
    41     2    15    1
    42    15    17    1
    43    15    21    1
    44    18    17    1
    45    22    21    1
    46    17    19    1
    47    17    20    1
    48    21    24    1
    49    21    23    1
