@<TRIPOS>MOLECULE
3,4
 38 38 0 0 0
SMALL
GASTEIGER

@<TRIPOS>ATOM
      1 SI          2.2240    2.3730    6.1831 Si      1  UNL1        0.0000
      2 SI         -2.4721   -0.4097    3.6663 Si      1  UNL1        0.0000
      3 N           0.7541    1.5616    5.9184 N.pl3   1  UNL1        0.0000
      4 N          -1.4208    0.5079    4.6407 N.pl3   1  UNL1        0.0000
      5 C          -0.4863    1.6974    6.5219 C.ar    1  UNL1        0.0000
      6 C          -0.6782    2.3499    7.7347 C.ar    1  UNL1        0.0000
      7 H           0.1838    2.7818    8.2239 H       1  UNL1        0.0000
      8 C          -1.9349    2.4491    8.3132 C.ar    1  UNL1        0.0000
      9 H          -2.0509    2.9622    9.2568 H       1  UNL1        0.0000
     10 C          -3.0285    1.8897    7.6811 C.ar    1  UNL1        0.0000
     11 H          -4.0106    1.9591    8.1256 H       1  UNL1        0.0000
     12 C          -2.8679    1.2358    6.4690 C.ar    1  UNL1        0.0000
     13 H          -3.7195    0.8006    5.9667 H       1  UNL1        0.0000
     14 C          -1.6219    1.1278    5.8613 C.ar    1  UNL1        0.0000
     15 C           2.1872    4.2807    5.8952 C.3     1  UNL1        0.0000
     16 H           1.5976    4.7827    6.6561 H       1  UNL1        0.0000
     17 H           1.7377    4.5055    4.9297 H       1  UNL1        0.0000
     18 H           3.1808    4.7183    5.9149 H       1  UNL1        0.0000
     19 C           3.1315    2.0403    7.8451 C.3     1  UNL1        0.0000
     20 H           2.6587    2.5653    8.6684 H       1  UNL1        0.0000
     21 H           4.1661    2.3659    7.8050 H       1  UNL1        0.0000
     22 H           3.1266    0.9823    8.0911 H       1  UNL1        0.0000
     23 C           3.2908    1.6184    4.7601 C.3     1  UNL1        0.0000
     24 H           3.1007    0.5419    4.6701 H       1  UNL1        0.0000
     25 H           4.3552    1.7483    4.9391 H       1  UNL1        0.0000
     26 H           3.0652    2.1087    3.8087 H       1  UNL1        0.0000
     27 C          -2.8629   -2.1723    4.3350 C.3     1  UNL1        0.0000
     28 H          -3.3661   -2.1206    5.2959 H       1  UNL1        0.0000
     29 H          -1.9547   -2.7533    4.4720 H       1  UNL1        0.0000
     30 H          -3.5101   -2.7221    3.6589 H       1  UNL1        0.0000
     31 C          -1.3554   -0.6271    2.1074 C.3     1  UNL1        0.0000
     32 H          -1.0239    0.3456    1.7271 H       1  UNL1        0.0000
     33 H          -1.8836   -1.1252    1.2989 H       1  UNL1        0.0000
     34 H          -0.4830   -1.2416    2.3511 H       1  UNL1        0.0000
     35 C          -4.1455    0.3673    3.1246 C.3     1  UNL1        0.0000
     36 H          -4.9332    0.1299    3.8325 H       1  UNL1        0.0000
     37 H          -4.4623   -0.0022    2.1541 H       1  UNL1        0.0000
     38 H          -4.0743    1.4487    3.0629 H       1  UNL1        0.0000
@<TRIPOS>BOND
     1    33    31    1
     2    32    31    1
     3    31    34    1
     4    31     2    1
     5    37    35    1
     6    38    35    1
     7    35     2    1
     8    35    36    1
     9    30    27    1
    10     2    27    1
    11     2     4    1
    12    26    23    1
    13    27    29    1
    14    27    28    1
    15     4    14    1
    16    24    23    1
    17    23    25    1
    18    23     1    1
    19    17    15    1
    20    14    12   ar
    21    14     5   ar
    22    15    18    1
    23    15     1    1
    24    15    16    1
    25     3     1    1
    26     3     5    1
    27    13    12    1
    28     1    19    1
    29    12    10   ar
    30     5     6   ar
    31    10    11    1
    32    10     8   ar
    33     6     7    1
    34     6     8   ar
    35    21    19    1
    36    19    22    1
    37    19    20    1
    38     8     9    1
