@<TRIPOS>MOLECULE
2,21
 38 38 0 0 0
SMALL
GASTEIGER

@<TRIPOS>ATOM
      1 SI          0.1791    3.6741    0.6463 Si      1  UNL1        0.0000
      2 N           0.0849    3.2826    2.3023 N.pl3   1  UNL1        0.0000
      3 C           0.0401    2.0580    2.9551 C.ar    1  UNL1        0.0000
      4 C           0.0804    0.8375    2.2908 C.ar    1  UNL1        0.0000
      5 C           0.0372   -0.3650    2.9799 C.ar    1  UNL1        0.0000
      6 C           0.2182    5.5953    0.7841 C.3     1  UNL1        0.0000
      7 C           1.7671    3.1077   -0.2810 C.3     1  UNL1        0.0000
      8 C          -1.3402    3.1811   -0.4276 C.3     1  UNL1        0.0000
      9 H           0.1473    0.8460    1.2123 H       1  UNL1        0.0000
     10 H           0.0706   -1.2961    2.4338 H       1  UNL1        0.0000
     11 H          -0.6904    5.9710    1.2677 H       1  UNL1        0.0000
     12 H           0.2793    6.0624   -0.1953 H       1  UNL1        0.0000
     13 H           1.0887    5.9299    1.3590 H       1  UNL1        0.0000
     14 H           1.8236    3.5484   -1.2713 H       1  UNL1        0.0000
     15 H           1.7909    2.0298   -0.4041 H       1  UNL1        0.0000
     16 H           2.6676    3.3918    0.2580 H       1  UNL1        0.0000
     17 H          -2.2632    3.5928   -0.0270 H       1  UNL1        0.0000
     18 H          -1.4596    2.1034   -0.4713 H       1  UNL1        0.0000
     19 H          -1.2365    3.5375   -1.4472 H       1  UNL1        0.0000
     20 SI         -0.1896    3.6741    6.6921 Si      1  UNL1        0.0000
     21 N          -0.0954    3.2826    5.0361 N.pl3   1  UNL1        0.0000
     22 C          -0.0506    2.0580    4.3833 C.ar    1  UNL1        0.0000
     23 C          -0.0909    0.8375    5.0476 C.ar    1  UNL1        0.0000
     24 C          -0.0477   -0.3650    4.3585 C.ar    1  UNL1        0.0000
     25 C          -0.2288    5.5953    6.5544 C.3     1  UNL1        0.0000
     26 C          -1.7776    3.1077    7.6194 C.3     1  UNL1        0.0000
     27 C           1.3297    3.1812    7.7661 C.3     1  UNL1        0.0000
     28 H          -0.1578    0.8460    6.1262 H       1  UNL1        0.0000
     29 H          -0.0811   -1.2961    4.9047 H       1  UNL1        0.0000
     30 H           0.6798    5.9710    6.0708 H       1  UNL1        0.0000
     31 H          -0.2899    6.0624    7.5338 H       1  UNL1        0.0000
     32 H          -1.0992    5.9299    5.9794 H       1  UNL1        0.0000
     33 H          -1.8342    3.5483    8.6097 H       1  UNL1        0.0000
     34 H          -1.8014    2.0297    7.7425 H       1  UNL1        0.0000
     35 H          -2.6781    3.3916    7.0804 H       1  UNL1        0.0000
     36 H           2.2526    3.5930    7.3655 H       1  UNL1        0.0000
     37 H           1.4491    2.1035    7.8099 H       1  UNL1        0.0000
     38 H           1.2259    3.5377    8.7857 H       1  UNL1        0.0000
@<TRIPOS>BOND
     1    19     8    1
     2    14     7    1
     3    18     8    1
     4     8    17    1
     5     8     1    1
     6    15     7    1
     7     7    16    1
     8     7     1    1
     9    12     6    1
    10     1     6    1
    11     1     2    1
    12     6    11    1
    13     6    13    1
    14     9     4    1
    15     4     3   ar
    16     4     5   ar
    17     2     3    1
    18    10     5    1
    19     3    22   ar
    20     5    24   ar
    21    24    29    1
    22    24    23   ar
    23    22    21    1
    24    22    23   ar
    25    21    20    1
    26    23    28    1
    27    32    25    1
    28    30    25    1
    29    25    20    1
    30    25    31    1
    31    20    26    1
    32    20    27    1
    33    35    26    1
    34    36    27    1
    35    26    34    1
    36    26    33    1
    37    27    37    1
    38    27    38    1
