@<TRIPOS>MOLECULE
2,21
 38 38 0 0 0
SMALL
GASTEIGER

@<TRIPOS>ATOM
      1 SI          3.0148    5.9609    3.8964 Si      1  UNL1        0.0000
      2 N           1.3613    6.3520    3.7652 N.pl3   1  UNL1        0.0000
      3 C           0.7085    7.5766    3.7203 C.ar    1  UNL1        0.0000
      4 C           1.3722    8.7971    3.7689 C.ar    1  UNL1        0.0000
      5 C           0.6835    9.9996    3.7192 C.ar    1  UNL1        0.0000
      6 C           4.1462    6.5113    2.4403 C.3     1  UNL1        0.0000
      7 C           2.8828    4.0392    3.8549 C.3     1  UNL1        0.0000
      8 C           3.8769    6.4701    5.5400 C.3     1  UNL1        0.0000
      9 H           3.3221    6.1207    6.4072 H       1  UNL1        0.0000
     10 H           3.9609    7.5487    5.6238 H       1  UNL1        0.0000
     11 H           4.8799    6.0608    5.6041 H       1  UNL1        0.0000
     12 H           2.4500    8.7886    3.8467 H       1  UNL1        0.0000
     13 H           1.2292   10.9307    3.7586 H       1  UNL1        0.0000
     14 H           5.1525    6.1211    2.5535 H       1  UNL1        0.0000
     15 H           3.7643    6.1639    1.4836 H       1  UNL1        0.0000
     16 H           4.2220    7.5923    2.3844 H       1  UNL1        0.0000
     17 H           3.8622    3.5724    3.9177 H       1  UNL1        0.0000
     18 H           2.4190    3.6987    2.9224 H       1  UNL1        0.0000
     19 H           2.2914    3.6687    4.6993 H       1  UNL1        0.0000
     20 SI         -3.0253    5.9609    3.4421 Si      1  UNL1        0.0000
     21 N          -1.3717    6.3520    3.5732 N.pl3   1  UNL1        0.0000
     22 C          -0.7189    7.5766    3.6181 C.ar    1  UNL1        0.0000
     23 C          -1.3827    8.7971    3.5696 C.ar    1  UNL1        0.0000
     24 C          -0.6940    9.9996    3.6193 C.ar    1  UNL1        0.0000
     25 C          -4.1566    6.5114    4.8983 C.3     1  UNL1        0.0000
     26 C          -2.8933    4.0392    3.4837 C.3     1  UNL1        0.0000
     27 C          -3.8875    6.4700    1.7985 C.3     1  UNL1        0.0000
     28 H          -3.3327    6.1207    0.9313 H       1  UNL1        0.0000
     29 H          -3.9716    7.5487    1.7147 H       1  UNL1        0.0000
     30 H          -4.8904    6.0607    1.7344 H       1  UNL1        0.0000
     31 H          -2.4605    8.7886    3.4918 H       1  UNL1        0.0000
     32 H          -1.2396   10.9307    3.5799 H       1  UNL1        0.0000
     33 H          -5.1629    6.1212    4.7851 H       1  UNL1        0.0000
     34 H          -3.7746    6.1640    5.8549 H       1  UNL1        0.0000
     35 H          -4.2325    7.5923    4.9541 H       1  UNL1        0.0000
     36 H          -3.8727    3.5724    3.4209 H       1  UNL1        0.0000
     37 H          -2.4295    3.6987    4.4162 H       1  UNL1        0.0000
     38 H          -2.3019    3.6687    2.6393 H       1  UNL1        0.0000
@<TRIPOS>BOND
     1    28    27    1
     2    15     6    1
     3    29    27    1
     4    30    27    1
     5    27    20    1
     6    16     6    1
     7     6    14    1
     8     6     1    1
     9    38    26    1
    10    18     7    1
    11    36    26    1
    12    20    26    1
    13    20    21    1
    14    20    25    1
    15    26    37    1
    16    31    23    1
    17    23    22   ar
    18    23    24   ar
    19    21    22    1
    20    32    24    1
    21    22     3   ar
    22    24     5   ar
    23     5    13    1
    24     5     4   ar
    25     3     2    1
    26     3     4   ar
    27     2     1    1
    28     4    12    1
    29     7     1    1
    30     7    17    1
    31     7    19    1
    32     1     8    1
    33    33    25    1
    34    25    35    1
    35    25    34    1
    36     8    11    1
    37     8    10    1
    38     8     9    1
