@<TRIPOS>MOLECULE
7,10
 71 73 0 0 0
SMALL
GASTEIGER

@<TRIPOS>ATOM
      1 C          17.2677   -0.7169    3.6519 C.ar    1  UNL1        0.0000
      2 C          16.9748   -1.9205    4.2589 C.ar    1  UNL1        0.0000
      3 C          17.7879   -2.4285    5.2591 C.ar    1  UNL1        0.0000
      4 C          18.9255   -1.7262    5.6311 C.ar    1  UNL1        0.0000
      5 C          19.2403   -0.5309    5.0225 C.ar    1  UNL1        0.0000
      6 C          18.4054    0.0106    4.0305 C.ar    1  UNL1        0.0000
      7 N          18.7583    1.2046    3.4718 N.pl3   1  UNL1        0.0000
      8 C          17.8974    1.9360    2.6149 C.3     1  UNL1        0.0000
      9 C          18.4943    2.3790    1.4344 C.3     1  UNL1        0.0000
     10 N          19.8360    2.1220    1.3498 N.pl3   1  UNL1        0.0000
     11 C          20.6055    2.2143    0.2150 C.ar    1  UNL1        0.0000
     12 C          20.1829    1.7965   -1.0525 C.ar    1  UNL1        0.0000
     13 C          21.0441    1.8514   -2.1303 C.ar    1  UNL1        0.0000
     14 C          22.3439    2.3067   -1.9781 C.ar    1  UNL1        0.0000
     15 C          22.7837    2.7046   -0.7238 C.ar    1  UNL1        0.0000
     16 C          21.9280    2.6613    0.3572 C.ar    1  UNL1        0.0000
     17 C          16.6391    2.4408    3.1127 C.2     1  UNL1        0.0000
     18 N          15.7899    2.9556    2.2975 N.2     1  UNL1        0.0000
     19 C          14.6973    3.7079    2.6508 C.ar    1  UNL1        0.0000
     20 C          14.8591    4.9609    3.2549 C.ar    1  UNL1        0.0000
     21 C          13.7723    5.7814    3.4761 C.ar    1  UNL1        0.0000
     22 C          12.4993    5.3777    3.1063 C.ar    1  UNL1        0.0000
     23 C          12.3293    4.1469    2.4927 C.ar    1  UNL1        0.0000
     24 C          13.4117    3.3236    2.2560 C.ar    1  UNL1        0.0000
     25 C          16.4232    2.4135    4.5993 C.3     1  UNL1        0.0000
     26 SI         14.8945    1.4444    5.2574 Si      1  UNL1        0.0000
     27 C          15.4970    0.3663    6.7150 C.3     1  UNL1        0.0000
     28 C          13.6326    2.7095    5.9383 C.3     1  UNL1        0.0000
     29 C          14.0259    0.3419    3.9639 C.3     1  UNL1        0.0000
     30 C          17.8028    3.2109    0.4158 C.3     1  UNL1        0.0000
     31 SI         16.4399    2.3329   -0.6308 Si      1  UNL1        0.0000
     32 C          17.0531    2.0486   -2.4354 C.3     1  UNL1        0.0000
     33 C          14.9702    3.5274   -0.8397 C.3     1  UNL1        0.0000
     34 C          15.9747    0.6211    0.0676 C.3     1  UNL1        0.0000
     35 H          16.6386   -0.3273    2.8672 H       1  UNL1        0.0000
     36 H          16.1003   -2.4737    3.9471 H       1  UNL1        0.0000
     37 H          17.5432   -3.3634    5.7399 H       1  UNL1        0.0000
     38 H          19.5724   -2.1178    6.4033 H       1  UNL1        0.0000
     39 H          20.1379    0.0197    5.2944 H       1  UNL1        0.0000
     40 H          19.1835    1.4125   -1.1684 H       1  UNL1        0.0000
     41 H          20.6987    1.5247   -3.1005 H       1  UNL1        0.0000
     42 H          23.0113    2.3451   -2.8253 H       1  UNL1        0.0000
     43 H          23.7985    3.0541   -0.5941 H       1  UNL1        0.0000
     44 H          22.2441    2.9832    1.3485 H       1  UNL1        0.0000
     45 H          15.8530    5.2829    3.5346 H       1  UNL1        0.0000
     46 H          13.9188    6.7451    3.9440 H       1  UNL1        0.0000
     47 H          11.6498    6.0191    3.2876 H       1  UNL1        0.0000
     48 H          11.3416    3.8278    2.1913 H       1  UNL1        0.0000
     49 H          13.2750    2.3727    1.7650 H       1  UNL1        0.0000
     50 H          17.3209    2.0309    5.0823 H       1  UNL1        0.0000
     51 H          16.2986    3.4490    4.9207 H       1  UNL1        0.0000
     52 H          14.7299   -0.3401    7.0160 H       1  UNL1        0.0000
     53 H          16.3848   -0.2016    6.4554 H       1  UNL1        0.0000
     54 H          15.7344    0.9728    7.5835 H       1  UNL1        0.0000
     55 H          14.0942    3.3891    6.6494 H       1  UNL1        0.0000
     56 H          13.2000    3.3127    5.1464 H       1  UNL1        0.0000
     57 H          12.8176    2.2072    6.4508 H       1  UNL1        0.0000
     58 H          12.9483    0.4677    4.0121 H       1  UNL1        0.0000
     59 H          14.3367    0.5912    2.9553 H       1  UNL1        0.0000
     60 H          14.2452   -0.7080    4.1273 H       1  UNL1        0.0000
     61 H          17.2814    4.0088    0.9447 H       1  UNL1        0.0000
     62 H          18.5472    3.6695   -0.2363 H       1  UNL1        0.0000
     63 H          17.4777    1.0614   -2.5931 H       1  UNL1        0.0000
     64 H          16.2186    2.1441   -3.1239 H       1  UNL1        0.0000
     65 H          17.7986    2.7799   -2.7338 H       1  UNL1        0.0000
     66 H          15.2586    4.3814   -1.4462 H       1  UNL1        0.0000
     67 H          14.1411    3.0385   -1.3420 H       1  UNL1        0.0000
     68 H          14.6065    3.9030    0.1085 H       1  UNL1        0.0000
     69 H          15.3373    0.7241    0.9376 H       1  UNL1        0.0000
     70 H          15.4418    0.0256   -0.6678 H       1  UNL1        0.0000
     71 H          16.8586    0.0664    0.3717 H       1  UNL1        0.0000
@<TRIPOS>BOND
     1    64    32    1
     2    41    13    1
     3    42    14    1
     4    65    32    1
     5    63    32    1
     6    32    31    1
     7    13    14   ar
     8    13    12   ar
     9    14    15   ar
    10    66    33    1
    11    67    33    1
    12    40    12    1
    13    12    11   ar
    14    33    31    1
    15    33    68    1
    16    15    43    1
    17    15    16   ar
    18    70    34    1
    19    31    34    1
    20    31    30    1
    21    62    30    1
    22    34    71    1
    23    34    69    1
    24    11    16   ar
    25    11    10    1
    26    16    44    1
    27    30    61    1
    28    30     9    1
    29    10     9    1
    30     9     8    1
    31    49    24    1
    32    48    23    1
    33    24    23   ar
    34    24    19   ar
    35    18    19    1
    36    18    17    2
    37    23    22   ar
    38     8    17    1
    39     8     7    1
    40    19    20   ar
    41    35     1    1
    42    59    29    1
    43    22    47    1
    44    22    21   ar
    45    17    25    1
    46    20    21   ar
    47    20    45    1
    48     7     6    1
    49    21    46    1
    50     1     6   ar
    51     1     2   ar
    52    36     2    1
    53    29    58    1
    54    29    60    1
    55    29    26    1
    56     6     5   ar
    57     2     3   ar
    58    25    51    1
    59    25    50    1
    60    25    26    1
    61     5    39    1
    62     5     4   ar
    63    56    28    1
    64    26    28    1
    65    26    27    1
    66     3     4   ar
    67     3    37    1
    68     4    38    1
    69    28    57    1
    70    28    55    1
    71    53    27    1
    72    27    52    1
    73    27    54    1
