@<TRIPOS>MOLECULE
3,4
 46 48 0 0 0
SMALL
GASTEIGER

@<TRIPOS>ATOM
      1 SI          0.9176   -1.8642    5.4660 Si      1  UNL1        0.0000
      2 SI          0.9699    1.6491   10.4381 Si      1  UNL1        0.0000
      3 N           0.5679   -1.1208    7.0261 N.pl3   1  UNL1        0.0000
      4 N           0.5922    0.4304    9.2212 N.pl3   1  UNL1        0.0000
      5 C           0.6134   -1.7037    8.1847 C.2     1  UNL1        0.0000
      6 C           0.6296   -0.8567    9.3830 C.2     1  UNL1        0.0000
      7 C           0.7593   -1.7331   10.5451 C.ar    1  UNL1        0.0000
      8 C           0.8130   -3.0551   10.0354 C.ar    1  UNL1        0.0000
      9 C           0.7282   -3.0935    8.6206 C.ar    1  UNL1        0.0000
     10 C           0.6699   -4.3247    8.0099 C.ar    1  UNL1        0.0000
     11 H           0.5514   -4.4243    6.9440 H       1  UNL1        0.0000
     12 C           0.7553   -5.4829    8.8029 C.ar    1  UNL1        0.0000
     13 H           0.7228   -6.4423    8.3069 H       1  UNL1        0.0000
     14 C           0.8646   -5.4398   10.1708 C.ar    1  UNL1        0.0000
     15 H           0.9208   -6.3531   10.7446 H       1  UNL1        0.0000
     16 C           0.8750   -4.1959   10.8406 C.ar    1  UNL1        0.0000
     17 C           0.9024   -3.9795   12.2364 C.ar    1  UNL1        0.0000
     18 H           0.9617   -4.8260   12.9047 H       1  UNL1        0.0000
     19 C           0.8263   -2.7028   12.7356 C.ar    1  UNL1        0.0000
     20 H           0.8234   -2.5549   13.8059 H       1  UNL1        0.0000
     21 C           0.7376   -1.5676   11.9105 C.ar    1  UNL1        0.0000
     22 H           0.6456   -0.5945   12.3630 H       1  UNL1        0.0000
     23 C          -0.6948   -2.6927    4.8626 C.3     1  UNL1        0.0000
     24 H          -1.1240   -3.3620    5.6028 H       1  UNL1        0.0000
     25 H          -0.5261   -3.2609    3.9536 H       1  UNL1        0.0000
     26 H          -1.4401   -1.9330    4.6423 H       1  UNL1        0.0000
     27 C           1.4501   -0.4858    4.2683 C.3     1  UNL1        0.0000
     28 H           0.6649    0.2421    4.0953 H       1  UNL1        0.0000
     29 H           1.7106   -0.9180    3.3068 H       1  UNL1        0.0000
     30 H           2.3244    0.0465    4.6316 H       1  UNL1        0.0000
     31 C           2.4150   -3.0591    5.5919 C.3     1  UNL1        0.0000
     32 H           2.1843   -4.0440    5.1991 H       1  UNL1        0.0000
     33 H           2.7608   -3.1836    6.6137 H       1  UNL1        0.0000
     34 H           3.2468   -2.6712    5.0121 H       1  UNL1        0.0000
     35 C          -0.6189    1.9377   11.4595 C.3     1  UNL1        0.0000
     36 H          -1.0350    1.0165   11.8568 H       1  UNL1        0.0000
     37 H          -1.3817    2.3944   10.8345 H       1  UNL1        0.0000
     38 H          -0.4314    2.6082   12.2919 H       1  UNL1        0.0000
     39 C           1.4790    3.2438    9.5350 C.3     1  UNL1        0.0000
     40 H           0.6785    3.6529    8.9283 H       1  UNL1        0.0000
     41 H           2.3381    3.0839    8.8900 H       1  UNL1        0.0000
     42 H           1.7563    4.0015   10.2615 H       1  UNL1        0.0000
     43 C           2.4928    1.1275   11.4841 C.3     1  UNL1        0.0000
     44 H           2.8257    0.1190   11.2581 H       1  UNL1        0.0000
     45 H           2.2910    1.1780   12.5493 H       1  UNL1        0.0000
     46 H           3.3243    1.7968   11.2851 H       1  UNL1        0.0000
@<TRIPOS>BOND
     1    29    27    1
     2    25    23    1
     3    28    27    1
     4    27    30    1
     5    27     1    1
     6    26    23    1
     7    23     1    1
     8    23    24    1
     9    34    31    1
    10    32    31    1
    11     1    31    1
    12     1     3    1
    13    31    33    1
    14    11    10    1
    15     3     5    1
    16    10     9   ar
    17    10    12   ar
    18     5     9    1
    19     5     6    2
    20    13    12    1
    21     9     8   ar
    22    12    14   ar
    23    41    39    1
    24    40    39    1
    25     4     6    1
    26     4     2    1
    27     6     7    1
    28    39    42    1
    29    39     2    1
    30     8     7   ar
    31     8    16   ar
    32    14    15    1
    33    14    16   ar
    34     2    35    1
    35     2    43    1
    36     7    21   ar
    37    37    35    1
    38    16    17   ar
    39    44    43    1
    40    46    43    1
    41    35    36    1
    42    35    38    1
    43    43    45    1
    44    21    22    1
    45    21    19   ar
    46    17    19   ar
    47    17    18    1
    48    19    20    1
