@<TRIPOS>MOLECULE
2,4
 40 40 0 0 0
SMALL
GASTEIGER

@<TRIPOS>ATOM
      1 SI          4.7258   11.0709    8.6695 Si      1  UNL1        0.0000
      2 N           3.6350    7.8562    6.7456 N.3     1  UNL1        0.0000
      3 C           3.8095    9.1518    6.8466 C.3     1  UNL1        0.0000
      4 N           4.2657    9.5342    8.0150 N.3     1  UNL1        0.0000
      5 C           3.4585   10.1018    5.7656 C.ar    1  UNL1        0.0000
      6 C           2.1656   10.6128    5.7383 C.ar    1  UNL1        0.0000
      7 H           1.4656   10.3024    6.5007 H       1  UNL1        0.0000
      8 C           1.7915   11.5032    4.7485 C.ar    1  UNL1        0.0000
      9 H           0.7861   11.8975    4.7313 H       1  UNL1        0.0000
     10 SI          3.1354    6.8184    5.4513 Si      1  UNL1        0.0000
     11 C           2.7037   11.8897    3.7803 C.ar    1  UNL1        0.0000
     12 H           2.4115   12.5852    3.0078 H       1  UNL1        0.0000
     13 C           3.9914   11.3832    3.8045 C.ar    1  UNL1        0.0000
     14 H           4.7046   11.6832    3.0507 H       1  UNL1        0.0000
     15 C           4.3695   10.4914    4.7937 C.ar    1  UNL1        0.0000
     16 H           5.3773   10.0994    4.8060 H       1  UNL1        0.0000
     17 C           4.6640    5.7392    5.0443 C.3     1  UNL1        0.0000
     18 H           5.4791    6.3200    4.6178 H       1  UNL1        0.0000
     19 H           4.4151    4.9560    4.3358 H       1  UNL1        0.0000
     20 H           5.0315    5.2580    5.9482 H       1  UNL1        0.0000
     21 C           2.5415    7.6983    3.8648 C.3     1  UNL1        0.0000
     22 H           1.7088    8.3658    4.0579 H       1  UNL1        0.0000
     23 H           2.2119    6.9575    3.1445 H       1  UNL1        0.0000
     24 H           3.3282    8.2827    3.3997 H       1  UNL1        0.0000
     25 C           1.7294    5.7612    6.1886 C.3     1  UNL1        0.0000
     26 H           2.0202    5.4211    7.1813 H       1  UNL1        0.0000
     27 H           1.5188    4.8881    5.5799 H       1  UNL1        0.0000
     28 H           0.8071    6.3278    6.2860 H       1  UNL1        0.0000
     29 C           3.7628   11.2119   10.3102 C.3     1  UNL1        0.0000
     30 H           2.7238   11.4868   10.1494 H       1  UNL1        0.0000
     31 H           4.2013   11.9512   10.9723 H       1  UNL1        0.0000
     32 H           3.7813   10.2485   10.8175 H       1  UNL1        0.0000
     33 C           6.6093   10.9466    8.9920 C.3     1  UNL1        0.0000
     34 H           6.9726   11.8130    9.5348 H       1  UNL1        0.0000
     35 H           7.1836   10.8724    8.0711 H       1  UNL1        0.0000
     36 H           6.8269   10.0679    9.5954 H       1  UNL1        0.0000
     37 C           4.3744   12.5844    7.5606 C.3     1  UNL1        0.0000
     38 H           3.3228   12.6689    7.3094 H       1  UNL1        0.0000
     39 H           4.9311   12.5503    6.6302 H       1  UNL1        0.0000
     40 H           4.6635   13.4891    8.0843 H       1  UNL1        0.0000
@<TRIPOS>BOND
     1    12    11    1
     2    14    13    1
     3    23    21    1
     4    24    21    1
     5    11    13   ar
     6    11     8   ar
     7    13    15   ar
     8    21    22    1
     9    21    10    1
    10    19    17    1
    11    18    17    1
    12     9     8    1
    13     8     6   ar
    14    15    16    1
    15    15     5   ar
    16    17    10    1
    17    17    20    1
    18    10    25    1
    19    10     2    1
    20    27    25    1
    21     6     5   ar
    22     6     7    1
    23     5     3    1
    24    25    28    1
    25    25    26    1
    26    39    37    1
    27     2     3    1
    28     3     4    1
    29    38    37    1
    30    37    40    1
    31    37     1    1
    32     4     1    1
    33    35    33    1
    34     1    33    1
    35     1    29    1
    36    33    34    1
    37    33    36    1
    38    30    29    1
    39    29    32    1
    40    29    31    1
