@<TRIPOS>MOLECULE
3,4
 64 65 0 0 0
SMALL
GASTEIGER

@<TRIPOS>ATOM
      1 SI         -5.8724    4.5271    3.2048 Si      1  UNL1        0.0000
      2 SI         -8.5381    4.3611    4.8867 Si      1  UNL1        0.0000
      3 N          -7.8260    7.4572    3.6284 N.3     1  UNL1        0.0000
      4 N          -6.4064    7.1496    5.3169 N.3     1  UNL1        0.0000
      5 N          -7.1876    5.2093    4.1486 N.3     1  UNL1        0.0000
      6 C          -7.1394    6.5951    4.3633 C.3     1  UNL1        0.0000
      7 C          -8.5063    7.0617    2.4086 C.3     1  UNL1        0.0000
      8 H          -8.3203    5.9982    2.2045 H       1  UNL1        0.0000
      9 C          -7.9648    7.9028    1.2452 C.3     1  UNL1        0.0000
     10 H          -6.8982    7.7113    1.1321 H       1  UNL1        0.0000
     11 H          -8.0826    8.9617    1.5001 H       1  UNL1        0.0000
     12 C          -8.6910    7.5869   -0.0587 C.3     1  UNL1        0.0000
     13 H          -8.2970    8.2161   -0.8595 H       1  UNL1        0.0000
     14 H          -8.5077    6.5446   -0.3328 H       1  UNL1        0.0000
     15 C         -10.1921    7.8106    0.0903 C.3     1  UNL1        0.0000
     16 H         -10.7032    7.5591   -0.8417 H       1  UNL1        0.0000
     17 H         -10.3819    8.8647    0.3041 H       1  UNL1        0.0000
     18 C         -10.7363    6.9573    1.2314 C.3     1  UNL1        0.0000
     19 H         -11.8092    7.1273    1.3473 H       1  UNL1        0.0000
     20 H         -10.5903    5.9007    0.9920 H       1  UNL1        0.0000
     21 C         -10.0180    7.2929    2.5349 C.3     1  UNL1        0.0000
     22 H         -10.4113    6.6885    3.3540 H       1  UNL1        0.0000
     23 H         -10.1891    8.3453    2.7792 H       1  UNL1        0.0000
     24 C          -5.7394    6.3600    6.3365 C.3     1  UNL1        0.0000
     25 H          -5.8656    5.2900    6.1271 H       1  UNL1        0.0000
     26 C          -6.3544    6.6823    7.7051 C.3     1  UNL1        0.0000
     27 H          -7.4030    6.3844    7.6994 H       1  UNL1        0.0000
     28 H          -6.3158    7.7672    7.8534 H       1  UNL1        0.0000
     29 C          -5.6240    5.9624    8.8348 C.3     1  UNL1        0.0000
     30 H          -6.0694    6.2391    9.7927 H       1  UNL1        0.0000
     31 H          -5.7415    4.8824    8.7123 H       1  UNL1        0.0000
     32 C          -4.1389    6.3076    8.8301 C.3     1  UNL1        0.0000
     33 H          -4.0144    7.3774    9.0111 H       1  UNL1        0.0000
     34 H          -3.6265    5.7687    9.6301 H       1  UNL1        0.0000
     35 C          -3.5262    5.9479    7.4807 C.3     1  UNL1        0.0000
     36 H          -3.6145    4.8706    7.3195 H       1  UNL1        0.0000
     37 H          -2.4637    6.2015    7.4720 H       1  UNL1        0.0000
     38 C          -4.2428    6.6949    6.3604 C.3     1  UNL1        0.0000
     39 H          -3.7995    6.4496    5.3928 H       1  UNL1        0.0000
     40 H          -4.1326    7.7720    6.5185 H       1  UNL1        0.0000
     41 C          -6.5998    3.3222    1.9176 C.3     1  UNL1        0.0000
     42 H          -7.4105    3.7583    1.3437 H       1  UNL1        0.0000
     43 H          -6.9736    2.4197    2.3886 H       1  UNL1        0.0000
     44 H          -5.8262    3.0233    1.2178 H       1  UNL1        0.0000
     45 C          -4.6332    3.5311    4.2677 C.3     1  UNL1        0.0000
     46 H          -3.9828    4.1694    4.8567 H       1  UNL1        0.0000
     47 H          -3.9991    2.9323    3.6205 H       1  UNL1        0.0000
     48 H          -5.1323    2.8513    4.9497 H       1  UNL1        0.0000
     49 C          -4.9371    5.9252    2.3105 C.3     1  UNL1        0.0000
     50 H          -5.1880    6.8920    2.7374 H       1  UNL1        0.0000
     51 H          -3.8617    5.7954    2.3885 H       1  UNL1        0.0000
     52 H          -5.1816    5.9533    1.2527 H       1  UNL1        0.0000
     53 C          -9.7117    3.6038    3.5830 C.3     1  UNL1        0.0000
     54 H          -9.2397    2.7919    3.0413 H       1  UNL1        0.0000
     55 H         -10.0566    4.3295    2.8546 H       1  UNL1        0.0000
     56 H         -10.5885    3.1943    4.0758 H       1  UNL1        0.0000
     57 C          -7.8692    2.9225    5.9486 C.3     1  UNL1        0.0000
     58 H          -7.3676    2.1788    5.3384 H       1  UNL1        0.0000
     59 H          -7.1722    3.2552    6.7113 H       1  UNL1        0.0000
     60 H          -8.6910    2.4243    6.4528 H       1  UNL1        0.0000
     61 C          -9.5293    5.5515    5.9974 C.3     1  UNL1        0.0000
     62 H         -10.5526    5.6606    5.6508 H       1  UNL1        0.0000
     63 H          -9.5770    5.1911    7.0209 H       1  UNL1        0.0000
     64 H          -9.0788    6.5398    6.0093 H       1  UNL1        0.0000
@<TRIPOS>BOND
     1    13    12    1
     2    16    15    1
     3    14    12    1
     4    12    15    1
     5    12     9    1
     6    15    17    1
     7    15    18    1
     8    20    18    1
     9    10     9    1
    10    44    41    1
    11    18    19    1
    12    18    21    1
    13     9    11    1
    14     9     7    1
    15    52    49    1
    16    42    41    1
    17    41    43    1
    18    41     1    1
    19     8     7    1
    20    49    51    1
    21    49    50    1
    22    49     1    1
    23     7    21    1
    24     7     3    1
    25    21    23    1
    26    21    22    1
    27    55    53    1
    28    54    53    1
    29     1     5    1
    30     1    45    1
    31    53    56    1
    32    53     2    1
    33    47    45    1
    34     3     6    1
    35     5     6    1
    36     5     2    1
    37    45    46    1
    38    45    48    1
    39     6     4    1
    40     2    57    1
    41     2    61    1
    42     4    24    1
    43    58    57    1
    44    39    38    1
    45    62    61    1
    46    57    60    1
    47    57    59    1
    48    61    64    1
    49    61    63    1
    50    25    24    1
    51    24    38    1
    52    24    26    1
    53    38    40    1
    54    38    35    1
    55    36    35    1
    56    37    35    1
    57    35    32    1
    58    27    26    1
    59    26    28    1
    60    26    29    1
    61    31    29    1
    62    32    29    1
    63    32    33    1
    64    32    34    1
    65    29    30    1
