@<TRIPOS>MOLECULE
1,2
 40 40 0 0 0
SMALL
GASTEIGER

@<TRIPOS>ATOM
      1 N           3.8528    3.3074   20.8495 N.3     1  UNL1       -0.2378
      2 N           1.5625    4.8977   21.0097 N.3     1  UNL1       -0.3029
      3 N           3.2584    5.6516   18.6902 N.3     1  UNL1       -0.3029
      4 N           5.2511    3.5371   18.2855 N.3     1  UNL1       -0.3029
      5 C           3.5011    3.8150   22.1442 C.3     1  UNL1        0.0268
      6 H           4.1380    4.6952   22.4170 H       1  UNL1        0.0453
      7 H           3.6970    3.0742   22.9527 H       1  UNL1        0.0453
      8 C           2.0210    4.2086   22.2207 C.3     1  UNL1        0.0128
      9 H           1.4282    3.2979   22.3158 H       1  UNL1        0.0439
     10 H           1.8546    4.8344   23.1166 H       1  UNL1        0.0439
     11 C           2.1840    6.2178   20.8786 C.3     1  UNL1        0.0114
     12 H           3.1387    6.2226   21.4032 H       1  UNL1        0.0439
     13 H           1.5583    6.9956   21.3458 H       1  UNL1        0.0439
     14 C           2.4064    6.5996   19.4135 C.3     1  UNL1        0.0114
     15 H           1.4370    6.6380   18.9113 H       1  UNL1        0.0439
     16 H           2.8378    7.6180   19.3804 H       1  UNL1        0.0439
     17 C           4.6356    5.8046   19.1630 C.3     1  UNL1        0.0114
     18 H           4.6527    5.5489   20.2175 H       1  UNL1        0.0439
     19 H           4.9636    6.8578   19.0534 H       1  UNL1        0.0439
     20 C           5.6566    4.9360   18.4250 C.3     1  UNL1        0.0114
     21 H           5.8109    5.3536   17.4264 H       1  UNL1        0.0439
     22 H           6.6199    5.0197   18.9551 H       1  UNL1        0.0439
     23 C           5.7386    2.6929   19.3832 C.3     1  UNL1        0.0128
     24 H           6.8453    2.6717   19.3843 H       1  UNL1        0.0439
     25 H           5.3675    1.6849   19.1842 H       1  UNL1        0.0439
     26 C           5.2726    3.1086   20.7780 C.3     1  UNL1        0.0268
     27 H           5.6185    2.3163   21.4823 H       1  UNL1        0.0453
     28 H           5.8290    4.0241   21.0954 H       1  UNL1        0.0453
     29 C           0.1111    5.0498   21.0773 C.3     1  UNL1       -0.0127
     30 H          -0.1945    5.5576   22.0062 H       1  UNL1        0.0391
     31 H          -0.3650    4.0723   21.0334 H       1  UNL1        0.0391
     32 H          -0.2460    5.6377   20.2343 H       1  UNL1        0.0391
     33 C           3.1902    5.9477   17.2603 C.3     1  UNL1       -0.0127
     34 H           2.1517    6.0092   16.9411 H       1  UNL1        0.0391
     35 H           3.6696    5.1492   16.6982 H       1  UNL1        0.0391
     36 H           3.6793    6.9056   17.0203 H       1  UNL1        0.0391
     37 C           5.8232    3.0119   17.0471 C.3     1  UNL1       -0.0127
     38 H           6.9183    3.1290   17.0239 H       1  UNL1        0.0391
     39 H           5.4042    3.5356   16.1876 H       1  UNL1        0.0391
     40 H           5.5923    1.9546   16.9519 H       1  UNL1        0.0391
@<TRIPOS>BOND
     1    39    37    1
     2    35    33    1
     3    34    33    1
     4    40    37    1
     5    36    33    1
     6    38    37    1
     7    37     4    1
     8    33     3    1
     9    21    20    1
    10     4    20    1
    11     4    23    1
    12    20    22    1
    13    20    17    1
    14     3    17    1
    15     3    14    1
    16    15    14    1
    17    19    17    1
    18    17    18    1
    19    25    23    1
    20    16    14    1
    21    23    24    1
    22    23    26    1
    23    14    11    1
    24    32    29    1
    25    26     1    1
    26    26    28    1
    27    26    27    1
    28     1     5    1
    29    11     2    1
    30    11    13    1
    31    11    12    1
    32     2    29    1
    33     2     8    1
    34    31    29    1
    35    29    30    1
    36     5     8    1
    37     5     6    1
    38     5     7    1
    39     8     9    1
    40     8    10    1
