@<TRIPOS>MOLECULE
1,2
 24 23 0 0 0
SMALL
GASTEIGER

@<TRIPOS>ATOM
      1 N          10.0506    2.5798   15.4710 N.3     1  UNL1       -0.3071
      2 N          10.5349   -0.0103   14.0566 N.3     1  UNL1       -0.3071
      3 C           9.8004    1.2598   16.0742 C.3     1  UNL1        0.0111
      4 H           8.9728    1.3223   16.8007 H       1  UNL1        0.0439
      5 H          10.7067    0.9619   16.6094 H       1  UNL1        0.0439
      6 C           8.8015    3.1480   14.9500 C.3     1  UNL1       -0.0130
      7 H           8.0125    3.1310   15.7156 H       1  UNL1        0.0391
      8 H           8.4588    2.6022   14.0717 H       1  UNL1        0.0391
      9 H           8.9704    4.1809   14.6500 H       1  UNL1        0.0391
     10 C           9.9693   -0.5054   12.7975 C.3     1  UNL1       -0.0130
     11 H           9.4215   -1.4464   12.9494 H       1  UNL1        0.0391
     12 H          10.7755   -0.6775   12.0856 H       1  UNL1        0.0391
     13 H           9.2919    0.2366   12.3738 H       1  UNL1        0.0391
     14 C          11.4780   -1.0173   14.5609 C.3     1  UNL1       -0.0130
     15 H          10.9746   -1.9822   14.7195 H       1  UNL1        0.0391
     16 H          11.9179   -0.6880   15.5015 H       1  UNL1        0.0391
     17 H          12.2819   -1.1540   13.8368 H       1  UNL1        0.0391
     18 C          10.5517    3.4805   16.5195 C.3     1  UNL1       -0.0130
     19 H           9.8127    3.5938   17.3247 H       1  UNL1        0.0391
     20 H          10.7578    4.4596   16.0878 H       1  UNL1        0.0391
     21 H          11.4748    3.0814   16.9400 H       1  UNL1        0.0391
     22 C           9.4521    0.1937   15.0330 C.3     1  UNL1        0.0111
     23 H           9.2224   -0.7466   15.5571 H       1  UNL1        0.0439
     24 H           8.5507    0.4987   14.4960 H       1  UNL1        0.0439
@<TRIPOS>BOND
     1    12    10    1
     2    13    10    1
     3    10    11    1
     4    10     2    1
     5    17    14    1
     6     2    14    1
     7     2    22    1
     8     8     6    1
     9    24    22    1
    10    14    15    1
    11    14    16    1
    12     9     6    1
    13     6     1    1
    14     6     7    1
    15    22    23    1
    16    22     3    1
    17     1     3    1
    18     1    18    1
    19     3     5    1
    20     3     4    1
    21    20    18    1
    22    18    21    1
    23    18    19    1
