@<TRIPOS>MOLECULE
6,7
 31 30 0 0 0
SMALL
GASTEIGER

@<TRIPOS>ATOM
      1 SI          0.2707   -2.3500   11.9652 Si      1  UNL1        0.0000
      2 SI         -1.5889    0.0132   12.5090 Si      1  UNL1        0.0000
      3 H          -1.4834    1.1910   13.4261 H       1  UNL1        0.0000
      4 SI          3.0898   -3.4850   11.5808 Si      1  UNL1        0.0000
      5 H           4.3525   -2.8879   11.0156 H       1  UNL1        0.0000
      6 N          -0.0351   -0.6587   12.3171 N.3     1  UNL1        0.0000
      7 N           2.0120   -2.1918   11.8397 N.3     1  UNL1        0.0000
      8 C          -0.2652   -3.5643   13.3375 C.3     1  UNL1        0.0000
      9 H           0.1957   -4.5348   13.1873 H       1  UNL1        0.0000
     10 H          -1.3398   -3.7042   13.3390 H       1  UNL1        0.0000
     11 H           0.0244   -3.2036   14.3196 H       1  UNL1        0.0000
     12 C          -0.5954   -2.9238   10.3564 C.3     1  UNL1        0.0000
     13 H          -0.1844   -2.4468    9.4720 H       1  UNL1        0.0000
     14 H          -1.6537   -2.6887   10.3979 H       1  UNL1        0.0000
     15 H          -0.4998   -3.9957   10.2270 H       1  UNL1        0.0000
     16 C          -2.9076   -1.1458   13.2413 C.3     1  UNL1        0.0000
     17 H          -3.1166   -1.9746   12.5725 H       1  UNL1        0.0000
     18 H          -3.8414   -0.6206   13.4164 H       1  UNL1        0.0000
     19 H          -2.5785   -1.5613   14.1874 H       1  UNL1        0.0000
     20 C          -2.3202    0.6737   10.8621 C.3     1  UNL1        0.0000
     21 H          -1.7419    1.5016   10.4617 H       1  UNL1        0.0000
     22 H          -3.3353    1.0291   11.0084 H       1  UNL1        0.0000
     23 H          -2.3529   -0.1016   10.1017 H       1  UNL1        0.0000
     24 C           2.4754   -4.7559   10.2964 C.3     1  UNL1        0.0000
     25 H           1.6738   -5.3602   10.7090 H       1  UNL1        0.0000
     26 H           3.2736   -5.4295   10.0006 H       1  UNL1        0.0000
     27 H           2.0949   -4.2812    9.3979 H       1  UNL1        0.0000
     28 C           3.5984   -4.5258   13.1023 C.3     1  UNL1        0.0000
     29 H           4.2509   -3.9777   13.7737 H       1  UNL1        0.0000
     30 H           4.1288   -5.4218   12.7932 H       1  UNL1        0.0000
     31 H           2.7305   -4.8396   13.6746 H       1  UNL1        0.0000
@<TRIPOS>BOND
     1    27    24    1
     2    13    12    1
     3    26    24    1
     4    23    20    1
     5    15    12    1
     6    24    25    1
     7    24     4    1
     8    12    14    1
     9    12     1    1
    10    21    20    1
    11    20    22    1
    12    20     2    1
    13     5     4    1
    14     4     7    1
    15     4    28    1
    16     7     1    1
    17     1     6    1
    18     1     8    1
    19     6     2    1
    20     2    16    1
    21     2     3    1
    22    17    16    1
    23    30    28    1
    24    28    31    1
    25    28    29    1
    26     9     8    1
    27    16    18    1
    28    16    19    1
    29     8    10    1
    30     8    11    1
