@<TRIPOS>MOLECULE
1,2
 24 23 0 0 0
SMALL
GASTEIGER

@<TRIPOS>ATOM
      1 N          13.4471   10.3498   14.7132 N.3     1  UNL1       -0.3071
      2 N          11.5382    7.9241   14.7246 N.3     1  UNL1       -0.3071
      3 C          14.8958   10.5551   14.5960 C.3     1  UNL1       -0.0130
      4 H          15.3223   10.9009   15.5465 H       1  UNL1        0.0391
      5 H          15.1010   11.3006   13.8306 H       1  UNL1        0.0391
      6 H          15.3772    9.6212   14.3129 H       1  UNL1        0.0391
      7 C          12.8373   11.6505   15.0089 C.3     1  UNL1       -0.0130
      8 H          13.0491   12.3407   14.1943 H       1  UNL1        0.0391
      9 H          13.2346   12.0692   15.9431 H       1  UNL1        0.0391
     10 H          11.7571   11.5645   15.0946 H       1  UNL1        0.0391
     11 C          13.2102    9.4160   15.8242 C.3     1  UNL1        0.0111
     12 H          13.9239    8.5942   15.7283 H       1  UNL1        0.0439
     13 H          13.3991    9.9146   16.7883 H       1  UNL1        0.0439
     14 C          11.7898    8.8568   15.8333 C.3     1  UNL1        0.0111
     15 H          11.0750    9.6788   15.7477 H       1  UNL1        0.0439
     16 H          11.6136    8.3573   16.7994 H       1  UNL1        0.0439
     17 C          12.1506    6.6226   15.0118 C.3     1  UNL1       -0.0130
     18 H          11.7626    6.2024   15.9492 H       1  UNL1        0.0391
     19 H          13.2315    6.7081   15.0867 H       1  UNL1        0.0391
     20 H          11.9301    5.9340   14.1981 H       1  UNL1        0.0391
     21 C          10.0881    7.7201   14.6253 C.3     1  UNL1       -0.0130
     22 H           9.6732    7.3741   15.5809 H       1  UNL1        0.0391
     23 H           9.8727    6.9752   13.8622 H       1  UNL1        0.0391
     24 H           9.6039    8.6545   14.3488 H       1  UNL1        0.0391
@<TRIPOS>BOND
     1     5     3    1
     2    23    21    1
     3     8     7    1
     4    20    17    1
     5     6     3    1
     6    24    21    1
     7     3     1    1
     8     3     4    1
     9    21     2    1
    10    21    22    1
    11     1     7    1
    12     1    11    1
    13     2    17    1
    14     2    14    1
    15     7    10    1
    16     7     9    1
    17    17    19    1
    18    17    18    1
    19    12    11    1
    20    15    14    1
    21    11    14    1
    22    11    13    1
    23    14    16    1
