@<TRIPOS>MOLECULE
3,4
 46 48 0 0 0
SMALL
GASTEIGER

@<TRIPOS>ATOM
      1 SI         -7.2595   -1.6206   -3.2335 Si      1  UNL1        0.0000
      2 SI        -11.0225   -5.8359   -5.3540 Si      1  UNL1        0.0000
      3 N          -8.4659   -2.8302   -3.4451 N.pl3   1  UNL1        0.0000
      4 N         -10.1244   -4.6275   -4.4555 N.pl3   1  UNL1        0.0000
      5 C          -9.5492   -3.0891   -2.7764 C.2     1  UNL1        0.0000
      6 C         -10.4487   -4.0879   -3.2860 C.2     1  UNL1        0.0000
      7 C         -11.5356   -4.2613   -2.3512 C.ar    1  UNL1        0.0000
      8 C         -12.6629   -5.0480   -2.2555 C.ar    1  UNL1        0.0000
      9 H         -12.9143   -5.7762   -3.0099 H       1  UNL1        0.0000
     10 C         -13.5070   -4.8999   -1.1396 C.ar    1  UNL1        0.0000
     11 H         -14.3872   -5.5258   -1.0848 H       1  UNL1        0.0000
     12 C         -13.2628   -4.0057   -0.1271 C.ar    1  UNL1        0.0000
     13 H         -13.9387   -3.9278    0.7120 H       1  UNL1        0.0000
     14 C         -12.1135   -3.1815   -0.1814 C.ar    1  UNL1        0.0000
     15 C         -11.7010   -2.2201    0.7682 C.ar    1  UNL1        0.0000
     16 H         -12.3014   -2.0535    1.6514 H       1  UNL1        0.0000
     17 C         -10.5447   -1.5060    0.5721 C.ar    1  UNL1        0.0000
     18 H         -10.2444   -0.7769    1.3118 H       1  UNL1        0.0000
     19 C          -9.7257   -1.6831   -0.5592 C.ar    1  UNL1        0.0000
     20 H          -8.8260   -1.0986   -0.6636 H       1  UNL1        0.0000
     21 C         -10.1019   -2.6015   -1.5063 C.ar    1  UNL1        0.0000
     22 C         -11.2899   -3.3377   -1.2959 C.ar    1  UNL1        0.0000
     23 C          -7.9902    0.1407   -3.0023 C.3     1  UNL1        0.0000
     24 H          -7.8082    0.7450   -3.8857 H       1  UNL1        0.0000
     25 H          -7.5557    0.6636   -2.1551 H       1  UNL1        0.0000
     26 H          -9.0649    0.1039   -2.8522 H       1  UNL1        0.0000
     27 C          -6.1071   -2.0664   -1.7658 C.3     1  UNL1        0.0000
     28 H          -5.6301   -3.0270   -1.9358 H       1  UNL1        0.0000
     29 H          -6.6459   -2.1369   -0.8260 H       1  UNL1        0.0000
     30 H          -5.3215   -1.3273   -1.6432 H       1  UNL1        0.0000
     31 C          -6.2599   -1.6432   -4.8450 C.3     1  UNL1        0.0000
     32 H          -6.9299   -1.5638   -5.6932 H       1  UNL1        0.0000
     33 H          -5.7071   -2.5681   -4.9566 H       1  UNL1        0.0000
     34 H          -5.5517   -0.8225   -4.8930 H       1  UNL1        0.0000
     35 C         -11.1141   -7.4768   -4.3592 C.3     1  UNL1        0.0000
     36 H         -10.3291   -8.1610   -4.6673 H       1  UNL1        0.0000
     37 H         -12.0608   -7.9853   -4.5109 H       1  UNL1        0.0000
     38 H         -10.9994   -7.3060   -3.2933 H       1  UNL1        0.0000
     39 C         -12.7573   -5.1990   -5.8521 C.3     1  UNL1        0.0000
     40 H         -12.6853   -4.5527   -6.7215 H       1  UNL1        0.0000
     41 H         -13.2274   -4.6261   -5.0595 H       1  UNL1        0.0000
     42 H         -13.4207   -6.0198   -6.1076 H       1  UNL1        0.0000
     43 C          -9.9900   -6.1161   -6.9270 C.3     1  UNL1        0.0000
     44 H          -9.0338   -6.5800   -6.7025 H       1  UNL1        0.0000
     45 H          -9.7905   -5.1694   -7.4212 H       1  UNL1        0.0000
     46 H         -10.5097   -6.7576   -7.6297 H       1  UNL1        0.0000
@<TRIPOS>BOND
     1    46    43    1
     2    45    43    1
     3    43    44    1
     4    43     2    1
     5    40    39    1
     6    42    39    1
     7    39     2    1
     8    39    41    1
     9    32    31    1
    10     2     4    1
    11     2    35    1
    12    33    31    1
    13    34    31    1
    14    31     1    1
    15    36    35    1
    16    37    35    1
    17     4     6    1
    18    35    38    1
    19    24    23    1
    20     3     1    1
    21     3     5    1
    22     6     5    2
    23     6     7    1
    24     1    23    1
    25     1    27    1
    26     9     8    1
    27    23    26    1
    28    23    25    1
    29     5    21    1
    30     7     8   ar
    31     7    22   ar
    32     8    10   ar
    33    28    27    1
    34    27    30    1
    35    27    29    1
    36    21    22   ar
    37    21    19   ar
    38    22    14   ar
    39    10    11    1
    40    10    12   ar
    41    20    19    1
    42    19    17   ar
    43    14    12   ar
    44    14    15   ar
    45    12    13    1
    46    17    15   ar
    47    17    18    1
    48    15    16    1
