@<TRIPOS>MOLECULE
3,4
 46 48 0 0 0
SMALL
GASTEIGER

@<TRIPOS>ATOM
      1 SI         -9.8983   -1.6205   -7.3265 Si      1  UNL1        0.0000
      2 SI         -6.1354   -5.8357   -5.2059 Si      1  UNL1        0.0000
      3 N          -8.6921   -2.8303   -7.1150 N.pl3   1  UNL1        0.0000
      4 N          -7.0336   -4.6276   -6.1045 N.pl3   1  UNL1        0.0000
      5 C          -7.6087   -3.0892   -7.7836 C.2     1  UNL1        0.0000
      6 C          -6.7093   -4.0880   -7.2740 C.2     1  UNL1        0.0000
      7 C          -5.6222   -4.2613   -8.2088 C.ar    1  UNL1        0.0000
      8 C          -4.4948   -5.0479   -8.3043 C.ar    1  UNL1        0.0000
      9 H          -4.2433   -5.7759   -7.5498 H       1  UNL1        0.0000
     10 C          -3.6507   -4.8997   -9.4201 C.ar    1  UNL1        0.0000
     11 H          -2.7704   -5.5255   -9.4748 H       1  UNL1        0.0000
     12 C          -3.8950   -4.0057  -10.4328 C.ar    1  UNL1        0.0000
     13 H          -3.2192   -3.9278  -11.2719 H       1  UNL1        0.0000
     14 C          -5.0444   -3.1816  -10.3786 C.ar    1  UNL1        0.0000
     15 C          -5.4570   -2.2204  -11.3283 C.ar    1  UNL1        0.0000
     16 H          -4.8566   -2.0538  -12.2115 H       1  UNL1        0.0000
     17 C          -6.6133   -1.5063  -11.1322 C.ar    1  UNL1        0.0000
     18 H          -6.9135   -0.7772  -11.8720 H       1  UNL1        0.0000
     19 C          -7.4322   -1.6833  -10.0009 C.ar    1  UNL1        0.0000
     20 H          -8.3319   -1.0988   -9.8965 H       1  UNL1        0.0000
     21 C          -7.0560   -2.6016   -9.0538 C.ar    1  UNL1        0.0000
     22 C          -5.8680   -3.3378   -9.2641 C.ar    1  UNL1        0.0000
     23 C          -9.1672    0.1407   -7.5571 C.3     1  UNL1        0.0000
     24 H          -9.3475    0.7441   -6.6728 H       1  UNL1        0.0000
     25 H          -9.6029    0.6647   -8.4030 H       1  UNL1        0.0000
     26 H          -8.0927    0.1037   -7.7091 H       1  UNL1        0.0000
     27 C         -11.0506   -2.0657   -8.7944 C.3     1  UNL1        0.0000
     28 H         -11.5278   -3.0263   -8.6248 H       1  UNL1        0.0000
     29 H         -10.5120   -2.1359   -9.7343 H       1  UNL1        0.0000
     30 H         -11.8362   -1.3265   -8.9167 H       1  UNL1        0.0000
     31 C         -10.8980   -1.6433   -5.7152 C.3     1  UNL1        0.0000
     32 H         -10.2280   -1.5652   -4.8668 H       1  UNL1        0.0000
     33 H         -11.4518   -2.5677   -5.6041 H       1  UNL1        0.0000
     34 H         -11.6054   -0.8219   -5.6665 H       1  UNL1        0.0000
     35 C          -6.0434   -7.4768   -6.2005 C.3     1  UNL1        0.0000
     36 H          -6.8286   -8.1609   -5.8926 H       1  UNL1        0.0000
     37 H          -5.0968   -7.9854   -6.0481 H       1  UNL1        0.0000
     38 H          -6.1576   -7.3061   -7.2664 H       1  UNL1        0.0000
     39 C          -4.4008   -5.1984   -4.7076 C.3     1  UNL1        0.0000
     40 H          -4.4731   -4.5519   -3.8384 H       1  UNL1        0.0000
     41 H          -3.9308   -4.6255   -5.5003 H       1  UNL1        0.0000
     42 H          -3.7372   -6.0190   -4.4519 H       1  UNL1        0.0000
     43 C          -7.1681   -6.1161   -3.6330 C.3     1  UNL1        0.0000
     44 H          -8.1241   -6.5801   -3.8575 H       1  UNL1        0.0000
     45 H          -7.3677   -5.1694   -3.1387 H       1  UNL1        0.0000
     46 H          -6.6483   -6.7575   -2.9302 H       1  UNL1        0.0000
@<TRIPOS>BOND
     1    16    15    1
     2    18    17    1
     3    15    17   ar
     4    15    14   ar
     5    13    12    1
     6    17    19   ar
     7    12    14   ar
     8    12    10   ar
     9    14    22   ar
    10    19    20    1
    11    19    21   ar
    12    29    27    1
    13    11    10    1
    14    10     8   ar
    15    22    21   ar
    16    22     7   ar
    17    21     5    1
    18    30    27    1
    19    27    28    1
    20    27     1    1
    21    25    23    1
    22     8     7   ar
    23     8     9    1
    24     7     6    1
    25     5     6    2
    26     5     3    1
    27    26    23    1
    28    23     1    1
    29    23    24    1
    30     1     3    1
    31     1    31    1
    32     6     4    1
    33    38    35    1
    34    35    37    1
    35    35    36    1
    36    35     2    1
    37     4     2    1
    38    31    34    1
    39    31    33    1
    40    31    32    1
    41    41    39    1
    42     2    39    1
    43     2    43    1
    44    39    42    1
    45    39    40    1
    46    44    43    1
    47    43    45    1
    48    43    46    1
