@<TRIPOS>MOLECULE
3,4
 46 48 0 0 0
SMALL
GASTEIGER

@<TRIPOS>ATOM
      1 SI         -5.3679    7.7719    5.1827 Si      1  UNL1        0.0000
      2 SI         -0.6222    4.9753    2.9576 Si      1  UNL1        0.0000
      3 N          -4.2063    6.9693    4.1242 N.pl3   1  UNL1        0.0000
      4 N          -2.1810    5.7735    3.1727 N.pl3   1  UNL1        0.0000
      5 C          -4.2628    6.7377    2.8408 C.2     1  UNL1        0.0000
      6 C          -3.1088    6.0544    2.2985 C.2     1  UNL1        0.0000
      7 C          -3.3144    5.8667    0.8739 C.ar    1  UNL1        0.0000
      8 C          -4.5826    6.4441    0.6014 C.ar    1  UNL1        0.0000
      9 C          -5.1990    6.9863    1.7598 C.ar    1  UNL1        0.0000
     10 C          -6.4342    7.5741    1.6275 C.ar    1  UNL1        0.0000
     11 H          -6.9553    8.0033    2.4687 H       1  UNL1        0.0000
     12 C          -7.0305    7.6133    0.3539 C.ar    1  UNL1        0.0000
     13 H          -8.0013    8.0786    0.2621 H       1  UNL1        0.0000
     14 C          -6.4317    7.0877   -0.7644 C.ar    1  UNL1        0.0000
     15 H          -6.9261    7.1393   -1.7232 H       1  UNL1        0.0000
     16 C          -5.1621    6.4737   -0.6686 C.ar    1  UNL1        0.0000
     17 C          -4.4135    5.8856   -1.7133 C.ar    1  UNL1        0.0000
     18 H          -4.8138    5.8806   -2.7164 H       1  UNL1        0.0000
     19 C          -3.1878    5.3243   -1.4529 C.ar    1  UNL1        0.0000
     20 H          -2.6301    4.8779   -2.2635 H       1  UNL1        0.0000
     21 C          -2.6172    5.3022   -0.1671 C.ar    1  UNL1        0.0000
     22 H          -1.6508    4.8448   -0.0254 H       1  UNL1        0.0000
     23 C          -6.9677    6.7387    5.2126 C.3     1  UNL1        0.0000
     24 H          -6.7981    5.7820    5.6986 H       1  UNL1        0.0000
     25 H          -7.3485    6.5320    4.2179 H       1  UNL1        0.0000
     26 H          -7.7415    7.2593    5.7669 H       1  UNL1        0.0000
     27 C          -5.5631    9.5774    4.6083 C.3     1  UNL1        0.0000
     28 H          -4.6735   10.1541    4.8450 H       1  UNL1        0.0000
     29 H          -6.4040   10.0448    5.1099 H       1  UNL1        0.0000
     30 H          -5.7234    9.6574    3.5381 H       1  UNL1        0.0000
     31 C          -4.5144    7.7111    6.8897 C.3     1  UNL1        0.0000
     32 H          -4.2668    8.7052    7.2477 H       1  UNL1        0.0000
     33 H          -3.5774    7.1399    6.8603 H       1  UNL1        0.0000
     34 H          -5.1473    7.2389    7.6339 H       1  UNL1        0.0000
     35 C          -0.9362    3.1833    2.3939 C.3     1  UNL1        0.0000
     36 H          -1.3852    2.6022    3.1944 H       1  UNL1        0.0000
     37 H          -0.0014    2.7048    2.1211 H       1  UNL1        0.0000
     38 H          -1.6040    3.1270    1.5407 H       1  UNL1        0.0000
     39 C           0.1213    4.9936    4.7164 C.3     1  UNL1        0.0000
     40 H           0.4115    3.9979    5.0358 H       1  UNL1        0.0000
     41 H          -0.5919    5.3708    5.4607 H       1  UNL1        0.0000
     42 H           1.0000    5.6282    4.7710 H       1  UNL1        0.0000
     43 C           0.4465    6.0336    1.7894 C.3     1  UNL1        0.0000
     44 H           0.7065    6.9783    2.2582 H       1  UNL1        0.0000
     45 H          -0.0577    6.2636    0.8570 H       1  UNL1        0.0000
     46 H           1.3701    5.5159    1.5528 H       1  UNL1        0.0000
@<TRIPOS>BOND
     1    18    17    1
     2    20    19    1
     3    15    14    1
     4    17    19   ar
     5    17    16   ar
     6    19    21   ar
     7    14    16   ar
     8    14    12   ar
     9    16     8   ar
    10    21    22    1
    11    21     7   ar
    12    13    12    1
    13    12    10   ar
    14     8     7   ar
    15     8     9   ar
    16    45    43    1
    17     7     6    1
    18    38    35    1
    19    46    43    1
    20    10     9   ar
    21    10    11    1
    22     9     5    1
    23    43    44    1
    24    43     2    1
    25    37    35    1
    26     6     5    2
    27     6     4    1
    28    35     2    1
    29    35    36    1
    30     5     3    1
    31     2     4    1
    32     2    39    1
    33    30    27    1
    34     3     1    1
    35    25    23    1
    36    27    28    1
    37    27    29    1
    38    27     1    1
    39    39    42    1
    40    39    40    1
    41    39    41    1
    42     1    23    1
    43     1    31    1
    44    23    24    1
    45    23    26    1
    46    33    31    1
    47    31    32    1
    48    31    34    1
