@<TRIPOS>MOLECULE
1,2
 33 36 0 0 0
SMALL
GASTEIGER

@<TRIPOS>ATOM
      1 N           2.6587   -0.7742    5.6483 N.pl3   1  UNL1        0.0000
      2 N           0.1793   -0.6705    4.1134 N.pl3   1  UNL1        0.0000
      3 N           0.3327   -3.8660    7.1950 N.ar    1  UNL1        0.0000
      4 N           1.7239   -2.6142    2.6897 N.ar    1  UNL1        0.0000
      5 N           2.1610   -1.9520    6.0288 N.3     1  UNL1        0.0000
      6 N           0.0237   -1.8515    4.7071 N.3     1  UNL1        0.0000
      7 N           0.6486   -3.9493    5.8900 N.ar    1  UNL1        0.0000
      8 N           1.9269   -3.2053    3.8747 N.ar    1  UNL1        0.0000
      9 C           2.7223   -2.3196    7.1836 C.3     1  UNL1        0.0000
     10 H           2.4391   -3.2285    7.6726 H       1  UNL1        0.0000
     11 C           3.6099   -1.3327    7.5746 C.2     1  UNL1        0.0000
     12 H           4.2166   -1.3125    8.4553 H       1  UNL1        0.0000
     13 C           3.5334   -0.3808    6.5700 C.2     1  UNL1        0.0000
     14 H           4.0426    0.5600    6.4796 H       1  UNL1        0.0000
     15 C          -1.2736   -2.1726    4.7262 C.3     1  UNL1        0.0000
     16 H          -1.6244   -3.0872    5.1581 H       1  UNL1        0.0000
     17 C          -1.9879   -1.1519    4.1274 C.2     1  UNL1        0.0000
     18 H          -3.0461   -1.0911    3.9838 H       1  UNL1        0.0000
     19 C          -1.0209   -0.2298    3.7549 C.2     1  UNL1        0.0000
     20 H          -1.1383    0.7190    3.2698 H       1  UNL1        0.0000
     21 C           0.2518   -5.1483    5.3923 C.ar    1  UNL1        0.0000
     22 H           0.3994   -5.4014    4.3620 H       1  UNL1        0.0000
     23 C          -0.3196   -5.8620    6.4146 C.ar    1  UNL1        0.0000
     24 H          -0.7314   -6.8487    6.3778 H       1  UNL1        0.0000
     25 C          -0.2390   -5.0047    7.5225 C.ar    1  UNL1        0.0000
     26 H          -0.5699   -5.1752    8.5276 H       1  UNL1        0.0000
     27 C           2.7940   -4.2323    3.7412 C.ar    1  UNL1        0.0000
     28 H           3.0799   -4.8319    4.5818 H       1  UNL1        0.0000
     29 C           3.1583   -4.3113    2.4162 C.ar    1  UNL1        0.0000
     30 H           3.8243   -5.0132    1.9595 H       1  UNL1        0.0000
     31 C           2.4568   -3.2698    1.8041 C.ar    1  UNL1        0.0000
     32 H           2.4559   -2.9722    0.7746 H       1  UNL1        0.0000
     33 B           1.1949   -2.7688    5.1354 B       1  UNL1        0.0000
@<TRIPOS>BOND
     1    32    31    1
     2    31    29   ar
     3    31     4   ar
     4    30    29    1
     5    29    27   ar
     6     4     8   ar
     7    20    19    1
     8    27     8   ar
     9    27    28    1
    10    19     2    1
    11    19    17    2
    12     8    33    1
    13    18    17    1
    14     2     6    1
    15    17    15    1
    16    22    21    1
    17     6    15    1
    18     6    33    1
    19    15    16    1
    20    33     7    1
    21    33     5    1
    22    21     7   ar
    23    21    23   ar
    24     1     5    1
    25     1    13    1
    26     7     3   ar
    27     5     9    1
    28    24    23    1
    29    23    25   ar
    30    14    13    1
    31    13    11    2
    32     9    11    1
    33     9    10    1
    34     3    25   ar
    35    25    26    1
    36    11    12    1
