@<TRIPOS>MOLECULE
1,2
 33 36 0 0 0
SMALL
GASTEIGER

@<TRIPOS>ATOM
      1 N           4.0348    1.9962    2.7236 N.pl3   1  UNL1        0.0000
      2 N           1.3059    3.1580    2.9985 N.pl3   1  UNL1        0.0000
      3 N           2.2466    2.9225   -1.1673 N.ar    1  UNL1        0.0000
      4 N           4.8999    4.7957    2.0792 N.ar    1  UNL1        0.0000
      5 N           3.8038    2.3553    1.4660 N.3     1  UNL1        0.0000
      6 N           1.5233    3.3742    1.6970 N.3     1  UNL1        0.0000
      7 N           2.8872    3.7875   -0.3652 N.ar    1  UNL1        0.0000
      8 N           3.5832    4.7745    1.8284 N.ar    1  UNL1        0.0000
      9 C           4.5394    1.6082    0.6406 C.3     1  UNL1        0.0000
     10 H           4.4967    1.7381   -0.4210 H       1  UNL1        0.0000
     11 C           5.2706    0.7150    1.4008 C.2     1  UNL1        0.0000
     12 H           5.9586   -0.0293    1.0569 H       1  UNL1        0.0000
     13 C           4.9143    1.0037    2.7120 C.2     1  UNL1        0.0000
     14 H           5.2447    0.5414    3.6217 H       1  UNL1        0.0000
     15 C           0.3511    3.4758    1.0640 C.3     1  UNL1        0.0000
     16 H           0.3049    3.6356    0.0063 H       1  UNL1        0.0000
     17 C          -0.6623    3.3120    1.9899 C.2     1  UNL1        0.0000
     18 H          -1.7176    3.3351    1.8145 H       1  UNL1        0.0000
     19 C          -0.0073    3.1151    3.1982 C.2     1  UNL1        0.0000
     20 H          -0.4063    2.9552    4.1815 H       1  UNL1        0.0000
     21 C           3.4788    4.7564   -1.0986 C.ar    1  UNL1        0.0000
     22 H           4.0475    5.5355   -0.6339 H       1  UNL1        0.0000
     23 C           3.2049    4.5115   -2.4223 C.ar    1  UNL1        0.0000
     24 H           3.5135    5.0809   -3.2750 H       1  UNL1        0.0000
     25 C           2.4269    3.3462   -2.4021 C.ar    1  UNL1        0.0000
     26 H           1.9979    2.8107   -3.2269 H       1  UNL1        0.0000
     27 C           3.0033    5.9205    2.2512 C.ar    1  UNL1        0.0000
     28 H           1.9511    6.0899    2.1349 H       1  UNL1        0.0000
     29 C           3.9846    6.7121    2.7946 C.ar    1  UNL1        0.0000
     30 H           3.8793    7.6843    3.2305 H       1  UNL1        0.0000
     31 C           5.1521    5.9501    2.6604 C.ar    1  UNL1        0.0000
     32 H           6.1521    6.1993    2.9595 H       1  UNL1        0.0000
     33 B           2.9447    3.5905    1.1340 B       1  UNL1        0.0000
@<TRIPOS>BOND
     1    24    23    1
     2    26    25    1
     3    23    25   ar
     4    23    21   ar
     5    25     3   ar
     6     3     7   ar
     7    21    22    1
     8    21     7   ar
     9    10     9    1
    10     7    33    1
    11    16    15    1
    12     9    11    1
    13     9     5    1
    14    12    11    1
    15    15     6    1
    16    15    17    1
    17    33     5    1
    18    33     6    1
    19    33     8    1
    20    11    13    2
    21     5     1    1
    22     6     2    1
    23    18    17    1
    24     8     4   ar
    25     8    27   ar
    26    17    19    2
    27     4    31   ar
    28    28    27    1
    29    27    29   ar
    30    31    29   ar
    31    31    32    1
    32    13     1    1
    33    13    14    1
    34    29    30    1
    35     2    19    1
    36    19    20    1
