@<TRIPOS>MOLECULE
1,2
 33 36 0 0 0
SMALL
GASTEIGER

@<TRIPOS>ATOM
      1 N           1.8953   -1.2687    5.0599 N.pl3   1  UNL1        0.0000
      2 N           2.8521    1.1278    6.4570 N.pl3   1  UNL1        0.0000
      3 N           2.1597   -1.7838    9.4290 N.ar    1  UNL1        0.0000
      4 N           4.7564   -2.5618    5.8273 N.ar    1  UNL1        0.0000
      5 N           2.1047   -1.7810    6.2733 N.3     1  UNL1        0.0000
      6 N           2.9662    0.2622    7.4638 N.3     1  UNL1        0.0000
      7 N           3.1382   -1.9975    8.5343 N.ar    1  UNL1        0.0000
      8 N           4.5302   -1.4407    6.5261 N.ar    1  UNL1        0.0000
      9 C           1.3982   -2.9052    6.4071 C.3     1  UNL1        0.0000
     10 H           1.4280   -3.4821    7.3081 H       1  UNL1        0.0000
     11 C           0.6910   -3.1222    5.2389 C.2     1  UNL1        0.0000
     12 H           0.0266   -3.9308    5.0165 H       1  UNL1        0.0000
     13 C           1.0445   -2.0618    4.4164 C.2     1  UNL1        0.0000
     14 H           0.7371   -1.8419    3.4115 H       1  UNL1        0.0000
     15 C           2.9200    0.9218    8.6253 C.3     1  UNL1        0.0000
     16 H           2.9782    0.4039    9.5597 H       1  UNL1        0.0000
     17 C           2.7568    2.2681    8.3577 C.2     1  UNL1        0.0000
     18 H           2.6784    3.0714    9.0604 H       1  UNL1        0.0000
     19 C           2.7188    2.3441    6.9708 C.2     1  UNL1        0.0000
     20 H           2.5931    3.2035    6.3415 H       1  UNL1        0.0000
     21 C           3.9366   -3.0082    8.9449 C.ar    1  UNL1        0.0000
     22 H           4.7640   -3.3348    8.3495 H       1  UNL1        0.0000
     23 C           3.4616   -3.4574   10.1529 C.ar    1  UNL1        0.0000
     24 H           3.8547   -4.2435   10.7643 H       1  UNL1        0.0000
     25 C           2.3450   -2.6490   10.4055 C.ar    1  UNL1        0.0000
     26 H           1.6821   -2.6643   11.2489 H       1  UNL1        0.0000
     27 C           5.6178   -0.6372    6.4928 C.ar    1  UNL1        0.0000
     28 H           5.6335    0.3072    7.0000 H       1  UNL1        0.0000
     29 C           6.5809   -1.2660    5.7440 C.ar    1  UNL1        0.0000
     30 H           7.5642   -0.9142    5.5077 H       1  UNL1        0.0000
     31 C           5.9792   -2.4686    5.3506 C.ar    1  UNL1        0.0000
     32 H           6.3881   -3.2572    4.7496 H       1  UNL1        0.0000
     33 B           3.2052   -1.2424    7.2255 B       1  UNL1        0.0000
@<TRIPOS>BOND
     1    14    13    1
     2    13     1    1
     3    13    11    2
     4    32    31    1
     5    12    11    1
     6     1     5    1
     7    11     9    1
     8    31    29   ar
     9    31     4   ar
    10    30    29    1
    11    29    27   ar
    12     4     8   ar
    13     5     9    1
    14     5    33    1
    15    20    19    1
    16     9    10    1
    17     2    19    1
    18     2     6    1
    19    27     8   ar
    20    27    28    1
    21     8    33    1
    22    19    17    2
    23    33     6    1
    24    33     7    1
    25     6    15    1
    26    22    21    1
    27    17    15    1
    28    17    18    1
    29     7    21   ar
    30     7     3   ar
    31    15    16    1
    32    21    23   ar
    33     3    25   ar
    34    23    25   ar
    35    23    24    1
    36    25    26    1
