@<TRIPOS>MOLECULE
1,2
 40 40 0 0 0
SMALL
GASTEIGER

@<TRIPOS>ATOM
      1 N           1.5425    1.9963   13.9375 N.3     1  UNL1        0.0000
      2 N           0.5787    2.1948   11.9126 N.3     1  UNL1        0.0000
      3 SI          2.6538    1.2313   15.0303 Si      1  UNL1        0.0000
      4 SI          0.3522    1.7318   10.2555 Si      1  UNL1        0.0000
      5 C           1.6606    1.9653   12.6252 C.3     1  UNL1        0.0000
      6 C           2.9588    1.6966   11.9621 C.ar    1  UNL1        0.0000
      7 C           3.3291    0.3943   11.6500 C.ar    1  UNL1        0.0000
      8 C           4.5329    0.1512   11.0129 C.ar    1  UNL1        0.0000
      9 C           5.3732    1.2032   10.6860 C.ar    1  UNL1        0.0000
     10 C           5.0077    2.5016   10.9990 C.ar    1  UNL1        0.0000
     11 C           3.8036    2.7492   11.6342 C.ar    1  UNL1        0.0000
     12 C           2.3602    1.9076   16.7929 C.3     1  UNL1        0.0000
     13 C           2.2559   -0.6444   14.9663 C.3     1  UNL1        0.0000
     14 C           4.5160    1.5373   14.6895 C.3     1  UNL1        0.0000
     15 C          -1.3142    2.4999    9.7240 C.3     1  UNL1        0.0000
     16 C           0.2460   -0.1825   10.1863 C.3     1  UNL1        0.0000
     17 C           1.6974    2.3513    9.0390 C.3     1  UNL1        0.0000
     18 H           2.6691   -0.4176   11.9142 H       1  UNL1        0.0000
     19 H           4.8186   -0.8623   10.7711 H       1  UNL1        0.0000
     20 H           6.3125    1.0110   10.1889 H       1  UNL1        0.0000
     21 H           5.6625    3.3226   10.7463 H       1  UNL1        0.0000
     22 H           3.5142    3.7613   11.8795 H       1  UNL1        0.0000
     23 H           2.9596    1.3373   17.4951 H       1  UNL1        0.0000
     24 H           2.6604    2.9467   16.8895 H       1  UNL1        0.0000
     25 H           1.3250    1.8217   17.1018 H       1  UNL1        0.0000
     26 H           2.3052   -1.1033   15.9483 H       1  UNL1        0.0000
     27 H           1.2481   -0.7888   14.5762 H       1  UNL1        0.0000
     28 H           2.9472   -1.1826   14.3243 H       1  UNL1        0.0000
     29 H           5.0963    1.2882   15.5722 H       1  UNL1        0.0000
     30 H           4.7168    2.5777   14.4508 H       1  UNL1        0.0000
     31 H           4.8945    0.9377   13.8687 H       1  UNL1        0.0000
     32 H          -1.7980    1.8761    8.9799 H       1  UNL1        0.0000
     33 H          -1.1891    3.4843    9.2840 H       1  UNL1        0.0000
     34 H          -1.9842    2.5872   10.5747 H       1  UNL1        0.0000
     35 H          -0.5083   -0.5165    9.4813 H       1  UNL1        0.0000
     36 H          -0.0196   -0.5718   11.1680 H       1  UNL1        0.0000
     37 H           1.1894   -0.6293    9.8868 H       1  UNL1        0.0000
     38 H           1.3384    2.2683    8.0183 H       1  UNL1        0.0000
     39 H           1.9533    3.3927    9.2111 H       1  UNL1        0.0000
     40 H           2.6132    1.7741    9.1131 H       1  UNL1        0.0000
@<TRIPOS>BOND
     1    38    17    1
     2    32    15    1
     3    17    40    1
     4    17    39    1
     5    17     4    1
     6    33    15    1
     7    35    16    1
     8    15     4    1
     9    15    34    1
    10    37    16    1
    11    16     4    1
    12    16    36    1
    13    20     9    1
    14     4     2    1
    15     9    10   ar
    16     9     8   ar
    17    21    10    1
    18    19     8    1
    19    10    11   ar
    20     8     7   ar
    21    11    22    1
    22    11     6   ar
    23     7    18    1
    24     7     6   ar
    25     2     5    1
    26     6     5    1
    27     5     1    1
    28    31    14    1
    29     1     3    1
    30    28    13    1
    31    30    14    1
    32    27    13    1
    33    14     3    1
    34    14    29    1
    35    13     3    1
    36    13    26    1
    37     3    12    1
    38    12    24    1
    39    12    25    1
    40    12    23    1
