@<TRIPOS>MOLECULE
1,2
 40 40 0 0 0
SMALL
GASTEIGER

@<TRIPOS>ATOM
      1 N           9.6215    4.3051   12.5569 N.3     1  UNL1        0.0000
      2 N           8.5242    3.0799   14.0047 N.3     1  UNL1        0.0000
      3 SI         10.9188    5.1282   11.7254 Si      1  UNL1        0.0000
      4 SI          8.1544    2.0430   15.3615 Si      1  UNL1        0.0000
      5 C           9.6976    3.3987   13.5042 C.3     1  UNL1        0.0000
      6 C          10.9578    2.7206   13.8870 C.ar    1  UNL1        0.0000
      7 C          11.3289    1.5868   13.1707 C.ar    1  UNL1        0.0000
      8 C          12.4926    0.9116   13.4896 C.ar    1  UNL1        0.0000
      9 C          13.2950    1.3627   14.5250 C.ar    1  UNL1        0.0000
     10 C          12.9290    2.4908   15.2388 C.ar    1  UNL1        0.0000
     11 C          11.7639    3.1698   14.9235 C.ar    1  UNL1        0.0000
     12 C          10.1102    6.0289   10.2541 C.3     1  UNL1        0.0000
     13 C          11.7811    6.3713   12.8907 C.3     1  UNL1        0.0000
     14 C          12.2247    3.9014   11.0414 C.3     1  UNL1        0.0000
     15 C           6.3014    1.6242   15.2144 C.3     1  UNL1        0.0000
     16 C           8.5167    2.9397   17.0092 C.3     1  UNL1        0.0000
     17 C           9.1499    0.4052   15.3125 C.3     1  UNL1        0.0000
     18 H          10.6966    1.2419   12.3649 H       1  UNL1        0.0000
     19 H          12.7748    0.0319   12.9307 H       1  UNL1        0.0000
     20 H          14.2034    0.8354   14.7747 H       1  UNL1        0.0000
     21 H          13.5527    2.8445   16.0464 H       1  UNL1        0.0000
     22 H          11.4799    4.0479   15.4815 H       1  UNL1        0.0000
     23 H          10.7944    6.7617    9.8391 H       1  UNL1        0.0000
     24 H           9.2215    6.5588   10.5855 H       1  UNL1        0.0000
     25 H           9.8298    5.3517    9.4519 H       1  UNL1        0.0000
     26 H          12.5667    6.9025   12.3626 H       1  UNL1        0.0000
     27 H          12.2356    5.8844   13.7494 H       1  UNL1        0.0000
     28 H          11.0660    7.1092   13.2454 H       1  UNL1        0.0000
     29 H          12.8516    4.4060   10.3141 H       1  UNL1        0.0000
     30 H          12.8733    3.5235   11.8245 H       1  UNL1        0.0000
     31 H          11.7742    3.0464   10.5467 H       1  UNL1        0.0000
     32 H           5.9490    1.1518   16.1255 H       1  UNL1        0.0000
     33 H           5.7248    2.5338   15.0712 H       1  UNL1        0.0000
     34 H           6.0892    0.9475   14.3909 H       1  UNL1        0.0000
     35 H           8.2376    2.3100   17.8482 H       1  UNL1        0.0000
     36 H           9.5685    3.1873   17.1233 H       1  UNL1        0.0000
     37 H           7.9362    3.8560   17.0823 H       1  UNL1        0.0000
     38 H           8.7098   -0.3078   16.0013 H       1  UNL1        0.0000
     39 H          10.1832    0.5496   15.6091 H       1  UNL1        0.0000
     40 H           9.1520   -0.0503   14.3271 H       1  UNL1        0.0000
@<TRIPOS>BOND
     1    25    12    1
     2    23    12    1
     3    12    24    1
     4    12     3    1
     5    29    14    1
     6    31    14    1
     7    14     3    1
     8    14    30    1
     9     3     1    1
    10     3    13    1
    11    26    13    1
    12    18     7    1
    13     1     5    1
    14    13    28    1
    15    13    27    1
    16    19     8    1
    17     7     8   ar
    18     7     6   ar
    19     8     9   ar
    20     5     6    1
    21     5     2    1
    22     6    11   ar
    23     2     4    1
    24    40    17    1
    25    34    15    1
    26     9    20    1
    27     9    10   ar
    28    11    10   ar
    29    11    22    1
    30    33    15    1
    31    15     4    1
    32    15    32    1
    33    10    21    1
    34    17     4    1
    35    17    39    1
    36    17    38    1
    37     4    16    1
    38    16    37    1
    39    16    36    1
    40    16    35    1
