@<TRIPOS>MOLECULE
3,4
 38 38 0 0 0
SMALL
GASTEIGER

@<TRIPOS>ATOM
      1 SI        -13.9649    1.4678   12.8970 Si      1  UNL1        0.0000
      2 SI         -9.6163    4.5619   11.0286 Si      1  UNL1        0.0000
      3 N         -12.2804    1.7907   13.1030 N.pl3   1  UNL1        0.0000
      4 N         -10.3803    3.4820   12.1363 N.pl3   1  UNL1        0.0000
      5 C         -11.9836    2.9508   13.8338 C.ar    1  UNL1        0.0000
      6 C         -10.9809    3.8327   13.3276 C.ar    1  UNL1        0.0000
      7 C         -10.6554    4.9764   14.0561 C.ar    1  UNL1        0.0000
      8 H          -9.8934    5.6354   13.6676 H       1  UNL1        0.0000
      9 C         -11.2946    5.2766   15.2490 C.ar    1  UNL1        0.0000
     10 H         -11.0261    6.1718   15.7904 H       1  UNL1        0.0000
     11 C         -12.2735    4.4310   15.7356 C.ar    1  UNL1        0.0000
     12 H         -12.7816    4.6574   16.6615 H       1  UNL1        0.0000
     13 C         -12.6115    3.2845   15.0303 C.ar    1  UNL1        0.0000
     14 H         -13.3708    2.6239   15.4183 H       1  UNL1        0.0000
     15 C         -14.4288    0.3797   11.3940 C.3     1  UNL1        0.0000
     16 H         -14.4786   -0.6748   11.6423 H       1  UNL1        0.0000
     17 H         -13.7607    0.5050   10.5509 H       1  UNL1        0.0000
     18 H         -15.4200    0.6696   11.0624 H       1  UNL1        0.0000
     19 C         -14.6993    0.5140   14.4153 C.3     1  UNL1        0.0000
     20 H         -15.1941    1.1942   15.1012 H       1  UNL1        0.0000
     21 H         -13.9465   -0.0263   14.9864 H       1  UNL1        0.0000
     22 H         -15.4437   -0.2071   14.0929 H       1  UNL1        0.0000
     23 C         -14.9545    3.0924   12.6762 C.3     1  UNL1        0.0000
     24 H         -14.7161    3.8085   13.4561 H       1  UNL1        0.0000
     25 H         -16.0257    2.9182   12.6987 H       1  UNL1        0.0000
     26 H         -14.7127    3.5574   11.7240 H       1  UNL1        0.0000
     27 C         -10.4655    6.2812   10.9932 C.3     1  UNL1        0.0000
     28 H         -11.4654    6.2302   11.4130 H       1  UNL1        0.0000
     29 H         -10.5497    6.6541    9.9781 H       1  UNL1        0.0000
     30 H          -9.9067    7.0151   11.5639 H       1  UNL1        0.0000
     31 C          -7.7485    4.8193   11.4286 C.3     1  UNL1        0.0000
     32 H          -7.5924    5.1997   12.4349 H       1  UNL1        0.0000
     33 H          -7.3077    5.5310   10.7381 H       1  UNL1        0.0000
     34 H          -7.1948    3.8895   11.3361 H       1  UNL1        0.0000
     35 C          -9.7940    3.7891    9.2884 C.3     1  UNL1        0.0000
     36 H         -10.8388    3.6312    9.0267 H       1  UNL1        0.0000
     37 H          -9.2821    2.8321    9.2129 H       1  UNL1        0.0000
     38 H          -9.3626    4.4436    8.5373 H       1  UNL1        0.0000
@<TRIPOS>BOND
     1    38    35    1
     2    36    35    1
     3    37    35    1
     4    35     2    1
     5    29    27    1
     6    17    15    1
     7    33    31    1
     8    27     2    1
     9    27    28    1
    10    27    30    1
    11     2    31    1
    12     2     4    1
    13    18    15    1
    14    34    31    1
    15    15    16    1
    16    15     1    1
    17    31    32    1
    18    26    23    1
    19     4     6    1
    20    23    25    1
    21    23     1    1
    22    23    24    1
    23     1     3    1
    24     1    19    1
    25     3     5    1
    26     6     5   ar
    27     6     7   ar
    28     8     7    1
    29     5    13   ar
    30     7     9   ar
    31    22    19    1
    32    19    21    1
    33    19    20    1
    34    13    14    1
    35    13    11   ar
    36     9    11   ar
    37     9    10    1
    38    11    12    1
