@<TRIPOS>MOLECULE
1,2
 24 23 0 0 0
SMALL
GASTEIGER

@<TRIPOS>ATOM
      1 N         -10.3850   -0.9196   12.3477 N.3     1  UNL1       -0.3071
      2 N          -9.3666    1.0986   14.1847 N.3     1  UNL1       -0.3071
      3 C          -9.7350   -1.2803   13.6178 C.3     1  UNL1        0.0111
      4 H          -9.2267   -2.2528   13.5355 H       1  UNL1        0.0439
      5 H         -10.4958   -1.3725   14.3991 H       1  UNL1        0.0439
      6 C          -8.7152   -0.2113   14.0168 C.3     1  UNL1        0.0111
      7 H          -8.2116   -0.5154   14.9502 H       1  UNL1        0.0439
      8 H          -7.9605   -0.1175   13.2281 H       1  UNL1        0.0439
      9 C          -9.6581   -1.5291   11.2231 C.3     1  UNL1       -0.0130
     10 H          -8.6069   -1.2427   11.2476 H       1  UNL1        0.0391
     11 H         -10.0850   -1.1737   10.2822 H       1  UNL1        0.0391
     12 H          -9.7341   -2.6249   11.2625 H       1  UNL1        0.0391
     13 C         -11.7628   -1.4210   12.3172 C.3     1  UNL1       -0.0130
     14 H         -12.2001   -1.1832   11.3463 H       1  UNL1        0.0391
     15 H         -12.3588   -0.9386   13.0947 H       1  UNL1        0.0391
     16 H         -11.7894   -2.5119   12.4595 H       1  UNL1        0.0391
     17 C         -10.1691    1.0914   15.4146 C.3     1  UNL1       -0.0130
     18 H         -11.0847    0.5140   15.2816 H       1  UNL1        0.0391
     19 H         -10.4613    2.1084   15.6711 H       1  UNL1        0.0391
     20 H          -9.5938    0.6746   16.2540 H       1  UNL1        0.0391
     21 C          -8.3322    2.1355   14.3210 C.3     1  UNL1       -0.0130
     22 H          -8.8073    3.1120   14.4331 H       1  UNL1        0.0391
     23 H          -7.7042    2.1524   13.4284 H       1  UNL1        0.0391
     24 H          -7.7020    1.9436   15.2007 H       1  UNL1        0.0391
@<TRIPOS>BOND
     1    11     9    1
     2     9    10    1
     3     9    12    1
     4     9     1    1
     5    14    13    1
     6    13     1    1
     7    13    16    1
     8    13    15    1
     9     1     3    1
    10     8     6    1
    11    23    21    1
    12     4     3    1
    13     3     6    1
    14     3     5    1
    15     6     2    1
    16     6     7    1
    17     2    21    1
    18     2    17    1
    19    21    22    1
    20    21    24    1
    21    18    17    1
    22    17    19    1
    23    17    20    1
