@<TRIPOS>MOLECULE
4,5
 78 77 0 0 0
SMALL
GASTEIGER

@<TRIPOS>ATOM
      1 SI         -0.5969    0.7159    6.6614 Si      1  UNL1        0.0000
      2 P          -0.5307   -1.7969    3.1730 P.3     1  UNL1        0.0000
      3 P           0.3548   -3.8992    8.8168 P.3     1  UNL1        0.0000
      4 N          -0.6505    1.5218    5.1773 N.3     1  UNL1        0.0000
      5 N          -0.5865   -0.9622    6.0468 N.3     1  UNL1        0.0000
      6 C          -1.0017    2.9218    5.0108 C.3     1  UNL1        0.0000
      7 C          -0.2553    3.8269    6.0049 C.3     1  UNL1        0.0000
      8 H           0.8157    3.6582    5.9140 H       1  UNL1        0.0000
      9 H          -0.5608    3.5926    7.0210 H       1  UNL1        0.0000
     10 H          -0.4700    4.8758    5.8102 H       1  UNL1        0.0000
     11 C          -2.5171    3.1245    5.1975 C.3     1  UNL1        0.0000
     12 H          -3.0642    2.4622    4.5307 H       1  UNL1        0.0000
     13 H          -2.7955    4.1528    4.9782 H       1  UNL1        0.0000
     14 H          -2.8011    2.8944    6.2188 H       1  UNL1        0.0000
     15 C          -0.6317    3.3739    3.5838 C.3     1  UNL1        0.0000
     16 H          -1.2404    2.8483    2.8490 H       1  UNL1        0.0000
     17 H           0.4257    3.1688    3.3927 H       1  UNL1        0.0000
     18 H          -0.8154    4.4418    3.4739 H       1  UNL1        0.0000
     19 C          -2.0235    0.9324    7.9444 C.3     1  UNL1        0.0000
     20 H          -1.9308    0.2561    8.7890 H       1  UNL1        0.0000
     21 H          -2.9906    0.7493    7.4862 H       1  UNL1        0.0000
     22 H          -2.0386    1.9416    8.3435 H       1  UNL1        0.0000
     23 C           1.0306    0.9165    7.6829 C.3     1  UNL1        0.0000
     24 H           1.0267    0.3791    8.6268 H       1  UNL1        0.0000
     25 H           1.1927    1.9636    7.9217 H       1  UNL1        0.0000
     26 H           1.8892    0.5771    7.0992 H       1  UNL1        0.0000
     27 C          -1.8764   -1.4115    5.5645 C.3     1  UNL1        0.0000
     28 H          -2.4058   -0.5271    5.2086 H       1  UNL1        0.0000
     29 H          -2.4874   -1.8523    6.3686 H       1  UNL1        0.0000
     30 C          -1.7625   -2.4264    4.4208 C.3     1  UNL1        0.0000
     31 H          -2.7465   -2.5929    3.9786 H       1  UNL1        0.0000
     32 H          -1.3981   -3.3801    4.8084 H       1  UNL1        0.0000
     33 C           0.1593   -3.4404    2.5609 C.3     1  UNL1        0.0000
     34 H           0.7401   -3.7764    3.4325 H       1  UNL1        0.0000
     35 C          -0.8042   -4.5660    2.1908 C.3     1  UNL1        0.0000
     36 H          -0.2628   -5.5115    2.1827 H       1  UNL1        0.0000
     37 H          -1.2218   -4.4201    1.2001 H       1  UNL1        0.0000
     38 H          -1.6208   -4.6548    2.9019 H       1  UNL1        0.0000
     39 C           1.1420   -3.1612    1.4273 C.3     1  UNL1        0.0000
     40 H           1.6828   -4.0671    1.1577 H       1  UNL1        0.0000
     41 H           1.8624   -2.4040    1.7370 H       1  UNL1        0.0000
     42 H           0.6177   -2.8029    0.5431 H       1  UNL1        0.0000
     43 C          -1.6625   -1.1349    1.8162 C.3     1  UNL1        0.0000
     44 H          -0.9709   -0.7713    1.0472 H       1  UNL1        0.0000
     45 C          -2.6721   -2.0649    1.1498 C.3     1  UNL1        0.0000
     46 H          -3.3861   -1.4691    0.5815 H       1  UNL1        0.0000
     47 H          -3.2318   -2.6490    1.8763 H       1  UNL1        0.0000
     48 H          -2.1886   -2.7454    0.4556 H       1  UNL1        0.0000
     49 C          -2.3740    0.0747    2.4295 C.3     1  UNL1        0.0000
     50 H          -2.7359    0.7431    1.6481 H       1  UNL1        0.0000
     51 H          -1.6909    0.6253    3.0899 H       1  UNL1        0.0000
     52 H          -3.2350   -0.2502    3.0124 H       1  UNL1        0.0000
     53 C           0.1494   -1.9770    6.7734 C.3     1  UNL1        0.0000
     54 H           1.1767   -1.6265    6.8775 H       1  UNL1        0.0000
     55 H           0.1847   -2.8990    6.1797 H       1  UNL1        0.0000
     56 C          -0.4131   -2.3277    8.1584 C.3     1  UNL1        0.0000
     57 H          -1.4854   -2.5104    8.0642 H       1  UNL1        0.0000
     58 H          -0.2663   -1.5008    8.8544 H       1  UNL1        0.0000
     59 C          -1.0274   -4.4767    9.9675 C.3     1  UNL1        0.0000
     60 H          -0.5706   -5.2715   10.5700 H       1  UNL1        0.0000
     61 C          -2.1177   -5.1233    9.1141 C.3     1  UNL1        0.0000
     62 H          -2.8566   -5.6138    9.7463 H       1  UNL1        0.0000
     63 H          -1.6856   -5.8677    8.4473 H       1  UNL1        0.0000
     64 H          -2.6345   -4.3816    8.5075 H       1  UNL1        0.0000
     65 C          -1.6187   -3.4302   10.9052 C.3     1  UNL1        0.0000
     66 H          -2.3845   -3.8914   11.5286 H       1  UNL1        0.0000
     67 H          -2.0843   -2.6204   10.3481 H       1  UNL1        0.0000
     68 H          -0.8618   -3.0101   11.5628 H       1  UNL1        0.0000
     69 C           1.5628   -3.1578   10.0601 C.3     1  UNL1        0.0000
     70 H           1.0634   -2.3632   10.6273 H       1  UNL1        0.0000
     71 C           2.0661   -4.2308   11.0210 C.3     1  UNL1        0.0000
     72 H           2.8544   -3.8266   11.6551 H       1  UNL1        0.0000
     73 H           2.4746   -5.0729   10.4647 H       1  UNL1        0.0000
     74 H           1.2706   -4.5967   11.6659 H       1  UNL1        0.0000
     75 C           2.7402   -2.5548    9.2977 C.3     1  UNL1        0.0000
     76 H           3.4830   -2.1673    9.9944 H       1  UNL1        0.0000
     77 H           2.4198   -1.7384    8.6557 H       1  UNL1        0.0000
     78 H           3.2156   -3.3125    8.6769 H       1  UNL1        0.0000
@<TRIPOS>BOND
     1    48    45    1
     2    42    39    1
     3    46    45    1
     4    44    43    1
     5    45    43    1
     6    45    47    1
     7    40    39    1
     8    37    35    1
     9    39    41    1
    10    39    33    1
    11    50    49    1
    12    43    49    1
    13    43     2    1
    14    36    35    1
    15    35    33    1
    16    35    38    1
    17    49    52    1
    18    49    51    1
    19    33     2    1
    20    33    34    1
    21    16    15    1
    22     2    30    1
    23    17    15    1
    24    18    15    1
    25    15     6    1
    26    31    30    1
    27    30    32    1
    28    30    27    1
    29    12    11    1
    30    13    11    1
    31     6     4    1
    32     6    11    1
    33     6     7    1
    34     4     1    1
    35    11    14    1
    36    28    27    1
    37    27     5    1
    38    27    29    1
    39    10     7    1
    40     8     7    1
    41     7     9    1
    42     5     1    1
    43     5    53    1
    44    55    53    1
    45     1    23    1
    46     1    19    1
    47    53    54    1
    48    53    56    1
    49    26    23    1
    50    21    19    1
    51    23    25    1
    52    23    24    1
    53    19    22    1
    54    19    20    1
    55    57    56    1
    56    56     3    1
    57    56    58    1
    58    63    61    1
    59    64    61    1
    60    77    75    1
    61    78    75    1
    62     3    59    1
    63     3    69    1
    64    61    62    1
    65    61    59    1
    66    75    76    1
    67    75    69    1
    68    59    60    1
    69    59    65    1
    70    69    70    1
    71    69    71    1
    72    67    65    1
    73    73    71    1
    74    65    66    1
    75    65    68    1
    76    71    72    1
    77    71    74    1
