@<TRIPOS>MOLECULE
1,13
 24 25 0 0 0
SMALL
GASTEIGER

@<TRIPOS>ATOM
      1 N           2.9975    3.1770   12.1131 N.pl3   1  UNL1       -0.1294
      2 C           3.2494    2.1086   11.3018 C.ar    1  UNL1        0.0724
      3 C           4.4036    1.3473   11.5257 C.ar    1  UNL1       -0.0372
      4 H           5.0416    1.6084   12.3576 H       1  UNL1        0.0637
      5 C           4.7100    0.2898   10.6971 C.ar    1  UNL1       -0.0599
      6 H           5.6020   -0.2928   10.8807 H       1  UNL1        0.0618
      7 C           3.8833   -0.0330    9.6301 C.ar    1  UNL1       -0.0616
      8 H           4.1291   -0.8620    8.9834 H       1  UNL1        0.0618
      9 C           2.7434    0.7198    9.3976 C.ar    1  UNL1       -0.0599
     10 H           2.0962    0.4755    8.5668 H       1  UNL1        0.0618
     11 C           2.4230    1.7824   10.2177 C.ar    1  UNL1       -0.0372
     12 H           1.5378    2.3783   10.0397 H       1  UNL1        0.0637
     13 N           1.7403    3.6855   12.2262 N.pl3   1  UNL1       -0.1294
     14 C           1.4700    4.9313   11.7347 C.ar    1  UNL1        0.0724
     15 C           0.2900    5.5714   12.1365 C.ar    1  UNL1       -0.0372
     16 H          -0.3476    5.0720   12.8522 H       1  UNL1        0.0637
     17 C          -0.0437    6.8069   11.6245 C.ar    1  UNL1       -0.0599
     18 H          -0.9578    7.2900   11.9421 H       1  UNL1        0.0618
     19 C           0.7823    7.4334   10.7022 C.ar    1  UNL1       -0.0616
     20 H           0.5165    8.4010   10.3037 H       1  UNL1        0.0618
     21 C           1.9446    6.8019   10.2882 C.ar    1  UNL1       -0.0599
     22 H           2.5884    7.2808    9.5638 H       1  UNL1        0.0618
     23 C           2.2902    5.5639   10.7894 C.ar    1  UNL1       -0.0372
     24 H           3.1898    5.0607   10.4600 H       1  UNL1        0.0637
@<TRIPOS>BOND
     1    10     9    1
     2     8     7    1
     3     9     7   ar
     4     9    11   ar
     5    22    21    1
     6     7     5   ar
     7    12    11    1
     8    11     2   ar
     9    21    19   ar
    10    21    23   ar
    11    20    19    1
    12    24    23    1
    13     5     6    1
    14     5     3   ar
    15    19    17   ar
    16    23    14   ar
    17     2     3   ar
    18     2     1    1
    19     3     4    1
    20    17    18    1
    21    17    15   ar
    22    14    15   ar
    23    14    13    1
    24     1    13    1
    25    15    16    1
