@<TRIPOS>MOLECULE
3,4
 64 65 0 0 0
SMALL
GASTEIGER

@<TRIPOS>ATOM
      1 SI          4.1988   11.2240   16.4992 Si      1  UNL1        0.0000
      2 SI          6.8079   12.9848   16.0149 Si      1  UNL1        0.0000
      3 N           6.9307    9.6728   15.0277 N.3     1  UNL1        0.0000
      4 N           7.1140    9.7113   17.2521 N.3     1  UNL1        0.0000
      5 N           5.9102   11.4891   16.2077 N.3     1  UNL1        0.0000
      6 C           6.6612   10.3031   16.1597 C.3     1  UNL1        0.0000
      7 C           6.4707   10.1953   13.7542 C.3     1  UNL1        0.0000
      8 H           5.8597   11.0928   13.9143 H       1  UNL1        0.0000
      9 C           5.6168    9.1388   13.0443 C.3     1  UNL1        0.0000
     10 H           6.1971    8.2148   12.9748 H       1  UNL1        0.0000
     11 H           4.7364    8.9254   13.6518 H       1  UNL1        0.0000
     12 C           5.1964    9.6015   11.6530 C.3     1  UNL1        0.0000
     13 H           4.6050    8.8214   11.1687 H       1  UNL1        0.0000
     14 H           4.5682   10.4915   11.7395 H       1  UNL1        0.0000
     15 C           6.4196    9.9328   10.8044 C.3     1  UNL1        0.0000
     16 H           6.1070   10.2755    9.8154 H       1  UNL1        0.0000
     17 H           7.0250    9.0332   10.6706 H       1  UNL1        0.0000
     18 C           7.2531   11.0111   11.4887 C.3     1  UNL1        0.0000
     19 H           6.6579   11.9246   11.5639 H       1  UNL1        0.0000
     20 H           8.1368   11.2384   10.8880 H       1  UNL1        0.0000
     21 C           7.6800   10.5664   12.8847 C.3     1  UNL1        0.0000
     22 H           8.2388   11.3636   13.3774 H       1  UNL1        0.0000
     23 H           8.3378    9.6952   12.8201 H       1  UNL1        0.0000
     24 C           6.9740   10.3136   18.5641 C.3     1  UNL1        0.0000
     25 H           6.3913   11.2412   18.4938 H       1  UNL1        0.0000
     26 C           8.3658   10.6425   19.1190 C.3     1  UNL1        0.0000
     27 H           8.8335   11.3895   18.4761 H       1  UNL1        0.0000
     28 H           8.9730    9.7348   19.0737 H       1  UNL1        0.0000
     29 C           8.2892   11.1652   20.5505 C.3     1  UNL1        0.0000
     30 H           9.2966   11.3600   20.9251 H       1  UNL1        0.0000
     31 H           7.7409   12.1112   20.5635 H       1  UNL1        0.0000
     32 C           7.5819   10.1632   21.4567 C.3     1  UNL1        0.0000
     33 H           8.1554    9.2350   21.4876 H       1  UNL1        0.0000
     34 H           7.5221   10.5568   22.4741 H       1  UNL1        0.0000
     35 C           6.1821    9.8761   20.9244 C.3     1  UNL1        0.0000
     36 H           5.5963   10.7994   20.9385 H       1  UNL1        0.0000
     37 H           5.6783    9.1513   21.5678 H       1  UNL1        0.0000
     38 C           6.2536    9.3355   19.4994 C.3     1  UNL1        0.0000
     39 H           6.7979    8.3867   19.4876 H       1  UNL1        0.0000
     40 H           5.2497    9.1437   19.1150 H       1  UNL1        0.0000
     41 C           3.8001    9.3592   16.4673 C.3     1  UNL1        0.0000
     42 H           4.7069    8.7553   16.4910 H       1  UNL1        0.0000
     43 H           3.2450    9.0924   15.5724 H       1  UNL1        0.0000
     44 H           3.1874    9.0733   17.3178 H       1  UNL1        0.0000
     45 C           3.1862   12.1065   15.1412 C.3     1  UNL1        0.0000
     46 H           3.2344   13.1847   15.2502 H       1  UNL1        0.0000
     47 H           2.1415   11.8229   15.2189 H       1  UNL1        0.0000
     48 H           3.5198   11.8562   14.1393 H       1  UNL1        0.0000
     49 C           3.6318   11.9343   18.1811 C.3     1  UNL1        0.0000
     50 H           4.0205   11.3702   19.0229 H       1  UNL1        0.0000
     51 H           2.5481   11.9008   18.2410 H       1  UNL1        0.0000
     52 H           3.9306   12.9686   18.3100 H       1  UNL1        0.0000
     53 C           6.2985   13.9056   14.4184 C.3     1  UNL1        0.0000
     54 H           6.6297   13.3927   13.5212 H       1  UNL1        0.0000
     55 H           6.7462   14.8948   14.4101 H       1  UNL1        0.0000
     56 H           5.2245   14.0357   14.3470 H       1  UNL1        0.0000
     57 C           8.6782   12.6237   15.9456 C.3     1  UNL1        0.0000
     58 H           9.1982   13.0449   16.8009 H       1  UNL1        0.0000
     59 H           9.1326   13.0531   15.0573 H       1  UNL1        0.0000
     60 H           8.8697   11.5539   15.9330 H       1  UNL1        0.0000
     61 C           6.4384   14.1545   17.4787 C.3     1  UNL1        0.0000
     62 H           5.4219   14.5314   17.4387 H       1  UNL1        0.0000
     63 H           7.1006   15.0136   17.4393 H       1  UNL1        0.0000
     64 H           6.5803   13.6765   18.4426 H       1  UNL1        0.0000
@<TRIPOS>BOND
     1    16    15    1
     2    17    15    1
     3    15    18    1
     4    15    12    1
     5    20    18    1
     6    13    12    1
     7    18    19    1
     8    18    21    1
     9    12    14    1
    10    12     9    1
    11    23    21    1
    12    21    22    1
    13    21     7    1
    14    10     9    1
    15     9    11    1
    16     9     7    1
    17    54    53    1
    18     7     8    1
    19     7     3    1
    20    48    45    1
    21    56    53    1
    22    55    53    1
    23    53     2    1
    24     3     6    1
    25    59    57    1
    26    45    47    1
    27    45    46    1
    28    45     1    1
    29    43    41    1
    30    60    57    1
    31    57     2    1
    32    57    58    1
    33     2     5    1
    34     2    61    1
    35     6     5    1
    36     6     4    1
    37     5     1    1
    38    41    42    1
    39    41     1    1
    40    41    44    1
    41     1    49    1
    42     4    24    1
    43    62    61    1
    44    63    61    1
    45    61    64    1
    46    49    51    1
    47    49    52    1
    48    49    50    1
    49    27    26    1
    50    25    24    1
    51    24    26    1
    52    24    38    1
    53    28    26    1
    54    40    38    1
    55    26    29    1
    56    39    38    1
    57    38    35    1
    58    29    31    1
    59    29    30    1
    60    29    32    1
    61    35    36    1
    62    35    32    1
    63    35    37    1
    64    32    33    1
    65    32    34    1
