@<TRIPOS>MOLECULE
1,2
 46 47 0 0 0
SMALL
GASTEIGER

@<TRIPOS>ATOM
      1 N           6.7820    3.2361    8.9914 N.3     1  UNL1       -0.1958
      2 N           7.4684    3.3044   11.1034 N.3     1  UNL1       -0.1958
      3 N           9.0338    3.8582    9.3471 N.3     1  UNL1       -0.2724
      4 C           8.4529    3.0718   12.1396 C.3     1  UNL1        0.0288
      5 H           9.4713    3.2455   11.7714 H       1  UNL1        0.0478
      6 C           8.3605    1.6109   12.6077 C.3     1  UNL1       -0.0359
      7 H           8.5785    0.9504   11.7642 H       1  UNL1        0.0281
      8 H           7.3317    1.4300   12.9304 H       1  UNL1        0.0281
      9 C           9.3268    1.3414   13.7568 C.3     1  UNL1       -0.0516
     10 H           9.2461    0.2983   14.0693 H       1  UNL1        0.0266
     11 H          10.3554    1.5109   13.4255 H       1  UNL1        0.0266
     12 C           9.0127    2.2628   14.9297 C.3     1  UNL1       -0.0530
     13 H           7.9993    2.0593   15.2787 H       1  UNL1        0.0265
     14 H           9.7042    2.0723   15.7537 H       1  UNL1        0.0265
     15 C           9.1107    3.7203   14.4935 C.3     1  UNL1       -0.0516
     16 H          10.1403    3.9398   14.1958 H       1  UNL1        0.0266
     17 H           8.8598    4.3761   15.3295 H       1  UNL1        0.0266
     18 C           8.1688    3.9989   13.3262 C.3     1  UNL1       -0.0359
     19 H           7.1305    3.8314   13.6217 H       1  UNL1        0.0281
     20 H           8.2749    5.0400   13.0109 H       1  UNL1        0.0281
     21 C           7.7684    3.4539    9.8151 C.3     1  UNL1        0.2083
     22 C           9.8439    2.9067    8.6300 C.3     1  UNL1       -0.0100
     23 H           9.2194    2.0992    8.2582 H       1  UNL1        0.0392
     24 H          10.6200    2.4723    9.2783 H       1  UNL1        0.0392
     25 H          10.3397    3.3937    7.7841 H       1  UNL1        0.0392
     26 C           9.7808    4.9173    9.9771 C.3     1  UNL1       -0.0100
     27 H           9.1376    5.4781   10.6491 H       1  UNL1        0.0392
     28 H          10.1481    5.5983    9.1998 H       1  UNL1        0.0392
     29 H          10.6538    4.5513   10.5358 H       1  UNL1        0.0392
     30 C           6.8432    3.6280    7.6008 C.3     1  UNL1        0.0288
     31 H           7.7604    4.2057    7.4040 H       1  UNL1        0.0478
     32 C           6.8075    2.4156    6.6577 C.3     1  UNL1       -0.0359
     33 H           7.6491    1.7485    6.8592 H       1  UNL1        0.0281
     34 H           5.8861    1.8568    6.8401 H       1  UNL1        0.0281
     35 C           6.8464    2.8655    5.2005 C.3     1  UNL1       -0.0516
     36 H           7.7737    3.4135    5.0146 H       1  UNL1        0.0266
     37 H           6.8379    1.9916    4.5445 H       1  UNL1        0.0266
     38 C           5.6548    3.7641    4.8859 C.3     1  UNL1       -0.0530
     39 H           4.7306    3.1933    5.0068 H       1  UNL1        0.0265
     40 H           5.7048    4.1032    3.8485 H       1  UNL1        0.0265
     41 C           5.6371    4.9630    5.8289 C.3     1  UNL1       -0.0516
     42 H           4.7592    5.5829    5.6291 H       1  UNL1        0.0266
     43 H           6.5243    5.5764    5.6502 H       1  UNL1        0.0266
     44 C           5.6255    4.5036    7.2822 C.3     1  UNL1       -0.0359
     45 H           5.6084    5.3653    7.9519 H       1  UNL1        0.0281
     46 H           4.7297    3.9126    7.4857 H       1  UNL1        0.0281
@<TRIPOS>BOND
     1    40    38    1
     2    37    35    1
     3    38    39    1
     4    38    35    1
     5    38    41    1
     6    36    35    1
     7    35    32    1
     8    42    41    1
     9    43    41    1
    10    41    44    1
    11    32    34    1
    12    32    33    1
    13    32    30    1
    14    44    46    1
    15    44    30    1
    16    44    45    1
    17    31    30    1
    18    30     1    1
    19    25    22    1
    20    23    22    1
    21    22    24    1
    22    22     3    1
    23     1    21    1
    24    28    26    1
    25     3    21    1
    26     3    26    1
    27    21     2    1
    28    26    29    1
    29    26    27    1
    30     2     4    1
    31     7     6    1
    32     5     4    1
    33     4     6    1
    34     4    18    1
    35     6     8    1
    36     6     9    1
    37    20    18    1
    38    18    19    1
    39    18    15    1
    40    11     9    1
    41     9    10    1
    42     9    12    1
    43    16    15    1
    44    15    12    1
    45    15    17    1
    46    12    13    1
    47    12    14    1
