@<TRIPOS>MOLECULE
1,2
 46 47 0 0 0
SMALL
GASTEIGER

@<TRIPOS>ATOM
      1 N           3.5133    3.3590    9.8574 N.3     1  UNL1       -0.1958
      2 N           4.6632    5.0370   10.6916 N.3     1  UNL1       -0.1958
      3 N           2.6462    5.6229    9.6038 N.3     1  UNL1       -0.2724
      4 C           2.3059    2.6392    9.5181 C.3     1  UNL1        0.0288
      5 H           1.5108    3.3149    9.1803 H       1  UNL1        0.0478
      6 C           1.7983    1.8932   10.7623 C.3     1  UNL1       -0.0359
      7 H           1.5482    2.6210   11.5354 H       1  UNL1        0.0281
      8 H           2.6164    1.2811   11.1490 H       1  UNL1        0.0281
      9 C           0.5873    1.0255   10.4339 C.3     1  UNL1       -0.0516
     10 H           0.2624    0.4964   11.3317 H       1  UNL1        0.0266
     11 H          -0.2413    1.6570   10.1017 H       1  UNL1        0.0266
     12 C           0.9288    0.0262    9.3338 C.3     1  UNL1       -0.0530
     13 H           1.7227   -0.6365    9.6840 H       1  UNL1        0.0265
     14 H           0.0561   -0.5869    9.0978 H       1  UNL1        0.0265
     15 C           1.3996    0.7638    8.0848 C.3     1  UNL1       -0.0516
     16 H           0.5876    1.3923    7.7092 H       1  UNL1        0.0266
     17 H           1.6537    0.0472    7.2999 H       1  UNL1        0.0266
     18 C           2.6119    1.6332    8.4013 C.3     1  UNL1       -0.0359
     19 H           3.4438    1.0097    8.7345 H       1  UNL1        0.0281
     20 H           2.9283    2.1696    7.5023 H       1  UNL1        0.0281
     21 C           3.5790    4.6664   10.0599 C.3     1  UNL1        0.2083
     22 C           2.1069    5.5401    8.2667 C.3     1  UNL1       -0.0100
     23 H           2.7416    4.9118    7.6485 H       1  UNL1        0.0392
     24 H           2.0943    6.5483    7.8375 H       1  UNL1        0.0392
     25 H           1.0782    5.1549    8.2364 H       1  UNL1        0.0392
     26 C           1.7244    6.1772   10.5670 C.3     1  UNL1       -0.0100
     27 H           2.1891    6.1997   11.5482 H       1  UNL1        0.0392
     28 H           0.7971    5.5881   10.6347 H       1  UNL1        0.0392
     29 H           1.4626    7.1967   10.2709 H       1  UNL1        0.0392
     30 C           4.9818    6.4102   11.0085 C.3     1  UNL1        0.0288
     31 H           4.2920    7.0995   10.4995 H       1  UNL1        0.0478
     32 C           4.8918    6.5992   12.5302 C.3     1  UNL1       -0.0359
     33 H           5.5270    5.8393   12.9904 H       1  UNL1        0.0281
     34 H           3.8725    6.4095   12.8677 H       1  UNL1        0.0281
     35 C           5.3302    7.9973   12.9524 C.3     1  UNL1       -0.0516
     36 H           4.6605    8.7395   12.5099 H       1  UNL1        0.0266
     37 H           5.2616    8.0914   14.0382 H       1  UNL1        0.0266
     38 C           6.7580    8.2727   12.4942 C.3     1  UNL1       -0.0530
     39 H           7.0581    9.2830   12.7820 H       1  UNL1        0.0265
     40 H           7.4348    7.5686   12.9833 H       1  UNL1        0.0265
     41 C           6.8594    8.1086   10.9818 C.3     1  UNL1       -0.0516
     42 H           7.8869    8.2853   10.6530 H       1  UNL1        0.0266
     43 H           6.2226    8.8518   10.4949 H       1  UNL1        0.0266
     44 C           6.4173    6.7110   10.5620 C.3     1  UNL1       -0.0359
     45 H           6.4974    6.6066    9.4776 H       1  UNL1        0.0281
     46 H           7.0607    5.9569   11.0199 H       1  UNL1        0.0281
@<TRIPOS>BOND
     1    17    15    1
     2    20    18    1
     3    23    22    1
     4    16    15    1
     5    24    22    1
     6    15    18    1
     7    15    12    1
     8    25    22    1
     9    22     3    1
    10    18    19    1
    11    18     4    1
    12    14    12    1
    13     5     4    1
    14    12    13    1
    15    12     9    1
    16    45    44    1
    17     4     1    1
    18     4     6    1
    19     3    21    1
    20     3    26    1
    21     1    21    1
    22    21     2    1
    23    11     9    1
    24    29    26    1
    25     9     6    1
    26     9    10    1
    27    43    41    1
    28    31    30    1
    29    44    41    1
    30    44    30    1
    31    44    46    1
    32    26    28    1
    33    26    27    1
    34    42    41    1
    35     2    30    1
    36     6     8    1
    37     6     7    1
    38    41    38    1
    39    30    32    1
    40    38    39    1
    41    38    35    1
    42    38    40    1
    43    36    35    1
    44    32    34    1
    45    32    35    1
    46    32    33    1
    47    35    37    1
