@<TRIPOS>MOLECULE
3,4
 38 38 0 0 0
SMALL
GASTEIGER

@<TRIPOS>ATOM
      1 SI         -0.1648    2.7691    7.3556 Si      1  UNL1        0.0000
      2 SI          1.8844    7.3478    4.2464 Si      1  UNL1        0.0000
      3 N          -0.0172    4.0030    6.1305 N.pl3   1  UNL1        0.0000
      4 N           0.8833    6.0155    4.7647 N.pl3   1  UNL1        0.0000
      5 C          -0.9921    4.8642    5.6699 C.ar    1  UNL1        0.0000
      6 C          -0.4892    5.9883    4.9070 C.ar    1  UNL1        0.0000
      7 C          -1.3908    6.9439    4.4388 C.ar    1  UNL1        0.0000
      8 C          -2.7464    6.8039    4.6794 C.ar    1  UNL1        0.0000
      9 C          -3.2280    5.7274    5.4099 C.ar    1  UNL1        0.0000
     10 C          -2.3624    4.7718    5.9128 C.ar    1  UNL1        0.0000
     11 C           1.5316    1.9338    7.1041 C.3     1  UNL1        0.0000
     12 C          -1.5727    1.5017    7.0841 C.3     1  UNL1        0.0000
     13 C          -0.3453    3.6059    9.0628 C.3     1  UNL1        0.0000
     14 C           3.5303    6.4012    4.0644 C.3     1  UNL1        0.0000
     15 C           1.3956    8.1482    2.5782 C.3     1  UNL1        0.0000
     16 C           1.9276    8.6633    5.6300 C.3     1  UNL1        0.0000
     17 H          -1.0129    7.7937    3.8920 H       1  UNL1        0.0000
     18 H          -3.4315    7.5458    4.2989 H       1  UNL1        0.0000
     19 H          -4.2868    5.6338    5.5963 H       1  UNL1        0.0000
     20 H          -2.7331    3.9476    6.5019 H       1  UNL1        0.0000
     21 H           1.7559    1.1925    7.8630 H       1  UNL1        0.0000
     22 H           2.3248    2.6817    7.1127 H       1  UNL1        0.0000
     23 H           1.5581    1.4384    6.1319 H       1  UNL1        0.0000
     24 H          -1.3023    0.5469    7.5242 H       1  UNL1        0.0000
     25 H          -1.7552    1.3331    6.0259 H       1  UNL1        0.0000
     26 H          -2.5066    1.8134    7.5436 H       1  UNL1        0.0000
     27 H          -0.3821    2.8580    9.8467 H       1  UNL1        0.0000
     28 H          -1.2551    4.1954    9.1259 H       1  UNL1        0.0000
     29 H           0.4895    4.2672    9.2733 H       1  UNL1        0.0000
     30 H           4.3761    7.0549    3.8830 H       1  UNL1        0.0000
     31 H           3.4637    5.6993    3.2315 H       1  UNL1        0.0000
     32 H           3.7339    5.8226    4.9657 H       1  UNL1        0.0000
     33 H           2.2768    8.5506    2.0880 H       1  UNL1        0.0000
     34 H           0.6942    8.9689    2.7008 H       1  UNL1        0.0000
     35 H           0.9514    7.4204    1.9038 H       1  UNL1        0.0000
     36 H           2.5905    9.4763    5.3566 H       1  UNL1        0.0000
     37 H           2.2839    8.2444    6.5661 H       1  UNL1        0.0000
     38 H           0.9441    9.0861    5.8127 H       1  UNL1        0.0000
@<TRIPOS>BOND
     1    35    15    1
     2    33    15    1
     3    15    34    1
     4    15     2    1
     5    31    14    1
     6    30    14    1
     7    17     7    1
     8    14     2    1
     9    14    32    1
    10     2     4    1
    11     2    16    1
    12    18     8    1
    13     7     8   ar
    14     7     6   ar
    15     8     9   ar
    16     4     6    1
    17     6     5   ar
    18    36    16    1
    19     9    19    1
    20     9    10   ar
    21    16    38    1
    22    16    37    1
    23     5    10   ar
    24     5     3    1
    25    10    20    1
    26    25    12    1
    27     3     1    1
    28    23    11    1
    29    12     1    1
    30    12    24    1
    31    12    26    1
    32    11    22    1
    33    11     1    1
    34    11    21    1
    35     1    13    1
    36    13    28    1
    37    13    29    1
    38    13    27    1
