@<TRIPOS>MOLECULE
1,4
 41 43 0 0 0
SMALL
GASTEIGER

@<TRIPOS>ATOM
      1 N           0.9154    7.2270    4.5733 N.pl3   1  UNL1       -0.0048
      2 N           2.0174    7.5746    4.0040 N.2     1  UNL1        0.0757
      3 N           1.7193    6.0800    2.2104 N.pl3   1  UNL1        0.1047
      4 N           0.6479    5.5690    2.7044 N.pl3   1  UNL1       -0.0143
      5 C           2.3990    7.0203    2.8604 C.2     1  UNL1        0.4107
      6 C           3.6549    7.4730    2.2712 C.ar    1  UNL1        0.0737
      7 C           4.3646    8.5340    2.8321 C.ar    1  UNL1       -0.0464
      8 H           3.9642    9.0240    3.7061 H       1  UNL1        0.0626
      9 C           5.5545    8.9549    2.2734 C.ar    1  UNL1       -0.0580
     10 H           6.0913    9.7806    2.7196 H       1  UNL1        0.0620
     11 C           6.0738    8.3350    1.1429 C.ar    1  UNL1       -0.0504
     12 C           5.3650    7.2757    0.5861 C.ar    1  UNL1       -0.0580
     13 H           5.7555    6.7814   -0.2928 H       1  UNL1        0.0620
     14 C           4.1756    6.8476    1.1383 C.ar    1  UNL1       -0.0464
     15 H           3.6324    6.0236    0.7017 H       1  UNL1        0.0626
     16 C           7.3525    8.8088    0.5208 C.3     1  UNL1       -0.0397
     17 H           7.1368    9.4860   -0.3068 H       1  UNL1        0.0278
     18 H           7.9248    7.9717    0.1261 H       1  UNL1        0.0278
     19 H           7.9628    9.3440    1.2444 H       1  UNL1        0.0278
     20 C           0.6704    7.8140    5.8079 C.ar    1  UNL1        0.0998
     21 C          -0.6456    7.9552    6.2634 C.ar    1  UNL1       -0.0350
     22 H          -1.4620    7.6544    5.6236 H       1  UNL1        0.0638
     23 C          -0.8920    8.4948    7.5103 C.ar    1  UNL1       -0.0598
     24 H          -1.9108    8.5965    7.8541 H       1  UNL1        0.0618
     25 C           0.1530    8.9213    8.3153 C.ar    1  UNL1       -0.0616
     26 H          -0.0470    9.3448    9.2878 H       1  UNL1        0.0618
     27 C           1.4573    8.8156    7.8565 C.ar    1  UNL1       -0.0598
     28 H           2.2759    9.1590    8.4722 H       1  UNL1        0.0618
     29 C           1.7199    8.2700    6.6173 C.ar    1  UNL1       -0.0350
     30 H           2.7312    8.1849    6.2487 H       1  UNL1        0.0638
     31 C          -0.0259    4.6906    1.8594 C.ar    1  UNL1        0.0978
     32 C          -0.8011    3.6527    2.3907 C.ar    1  UNL1       -0.0351
     33 H          -0.8685    3.5365    3.4626 H       1  UNL1        0.0638
     34 C          -1.4685    2.7884    1.5453 C.ar    1  UNL1       -0.0598
     35 H          -2.0577    1.9856    1.9641 H       1  UNL1        0.0618
     36 C          -1.3758    2.9306    0.1687 C.ar    1  UNL1       -0.0616
     37 H          -1.8988    2.2490   -0.4850 H       1  UNL1        0.0618
     38 C          -0.6003    3.9496   -0.3625 C.ar    1  UNL1       -0.0598
     39 H          -0.5206    4.0651   -1.4335 H       1  UNL1        0.0618
     40 C           0.0720    4.8215    0.4690 C.ar    1  UNL1       -0.0351
     41 H           0.6785    5.6195    0.0683 H       1  UNL1        0.0638
@<TRIPOS>BOND
     1    39    38    1
     2    37    36    1
     3    38    36   ar
     4    38    40   ar
     5    17    16    1
     6    13    12    1
     7    41    40    1
     8    18    16    1
     9    36    34   ar
    10    40    31   ar
    11    16    11    1
    12    16    19    1
    13    12    14   ar
    14    12    11   ar
    15    15    14    1
    16    14     6   ar
    17    11     9   ar
    18    34    35    1
    19    34    32   ar
    20    31    32   ar
    21    31     4    1
    22     3     4    1
    23     3     5    1
    24     6     7   ar
    25     6     5    1
    26     9    10    1
    27     9     7   ar
    28    32    33    1
    29     7     8    1
    30     5     2    2
    31     2     1    1
    32     1    20    1
    33    22    21    1
    34    20    21   ar
    35    20    29   ar
    36    30    29    1
    37    21    23   ar
    38    29    27   ar
    39    23    24    1
    40    23    25   ar
    41    27    25   ar
    42    27    28    1
    43    25    26    1
