@<TRIPOS>MOLECULE
1,4
 41 43 0 0 0
SMALL
GASTEIGER

@<TRIPOS>ATOM
      1 N           1.9081    6.6861    9.8481 N.pl3   1  UNL1       -0.0048
      2 N           2.6124    7.1190   10.8300 N.2     1  UNL1        0.0757
      3 N           4.6334    6.6993    9.7059 N.pl3   1  UNL1        0.1047
      4 N           4.0387    6.0986    8.7369 N.pl3   1  UNL1       -0.0143
      5 C           3.9405    7.1625   10.7411 C.2     1  UNL1        0.4107
      6 C           4.6797    7.7587   11.8477 C.ar    1  UNL1        0.0737
      7 C           4.0061    8.3335   12.9252 C.ar    1  UNL1       -0.0464
      8 H           2.9272    8.3295   12.9269 H       1  UNL1        0.0626
      9 C           4.7095    8.8989   13.9687 C.ar    1  UNL1       -0.0580
     10 H           4.1738    9.3409   14.7975 H       1  UNL1        0.0620
     11 C           6.1004    8.9112   13.9729 C.ar    1  UNL1       -0.0504
     12 C           6.7688    8.3376   12.8976 C.ar    1  UNL1       -0.0580
     13 H           7.8500    8.3362   12.8843 H       1  UNL1        0.0620
     14 C           6.0738    7.7683   11.8496 C.ar    1  UNL1       -0.0464
     15 H           6.5993    7.3204   11.0205 H       1  UNL1        0.0626
     16 C           6.8549    9.5487   15.1004 C.3     1  UNL1       -0.0397
     17 H           6.9265   10.6254   14.9409 H       1  UNL1        0.0278
     18 H           7.8643    9.1496   15.1679 H       1  UNL1        0.0278
     19 H           6.3460    9.3850   16.0481 H       1  UNL1        0.0278
     20 C           0.5402    6.5556   10.0537 C.ar    1  UNL1        0.0998
     21 C          -0.3356    6.8065    8.9909 C.ar    1  UNL1       -0.0350
     22 H           0.0611    7.1749    8.0553 H       1  UNL1        0.0638
     23 C          -1.6937    6.6194    9.1603 C.ar    1  UNL1       -0.0598
     24 H          -2.3670    6.8183    8.3392 H       1  UNL1        0.0618
     25 C          -2.1995    6.2020   10.3820 C.ar    1  UNL1       -0.0616
     26 H          -3.2620    6.0589   10.5091 H       1  UNL1        0.0618
     27 C          -1.3376    5.9879   11.4475 C.ar    1  UNL1       -0.0598
     28 H          -1.7310    5.6789   12.4048 H       1  UNL1        0.0618
     29 C           0.0221    6.1637   11.2926 C.ar    1  UNL1       -0.0350
     30 H           0.7071    6.0000   12.1108 H       1  UNL1        0.0638
     31 C           4.8170    5.7496    7.6400 C.ar    1  UNL1        0.0978
     32 C           5.8929    6.5436    7.2282 C.ar    1  UNL1       -0.0351
     33 H           6.1313    7.4271    7.8006 H       1  UNL1        0.0638
     34 C           6.6240    6.1920    6.1126 C.ar    1  UNL1       -0.0598
     35 H           7.4513    6.8116    5.7990 H       1  UNL1        0.0618
     36 C           6.3026    5.0508    5.3927 C.ar    1  UNL1       -0.0616
     37 H           6.8763    4.7825    4.5185 H       1  UNL1        0.0618
     38 C           5.2520    4.2476    5.8097 C.ar    1  UNL1       -0.0598
     39 H           5.0165    3.3452    5.2651 H       1  UNL1        0.0618
     40 C           4.5153    4.5824    6.9289 C.ar    1  UNL1       -0.0351
     41 H           3.7250    3.9360    7.2839 H       1  UNL1        0.0638
@<TRIPOS>BOND
     1    37    36    1
     2    39    38    1
     3    36    38   ar
     4    36    34   ar
     5    35    34    1
     6    38    40   ar
     7    34    32   ar
     8    40    41    1
     9    40    31   ar
    10    32    31   ar
    11    32    33    1
    12    31     4    1
    13    22    21    1
    14    24    23    1
    15     4     3    1
    16    21    23   ar
    17    21    20   ar
    18    23    25   ar
    19     3     5    1
    20     1    20    1
    21     1     2    1
    22    20    29   ar
    23    25    26    1
    24    25    27   ar
    25     5     2    2
    26     5     6    1
    27    15    14    1
    28    29    27   ar
    29    29    30    1
    30    27    28    1
    31     6    14   ar
    32     6     7   ar
    33    14    12   ar
    34    13    12    1
    35    12    11   ar
    36     7     8    1
    37     7     9   ar
    38     9    11   ar
    39     9    10    1
    40    11    16    1
    41    17    16    1
    42    16    18    1
    43    16    19    1
