@<TRIPOS>MOLECULE
2,3
 36 36 0 0 0
SMALL
GASTEIGER

@<TRIPOS>ATOM
      1 SI          1.1238    8.2053   15.4615 Si      1  UNL1        0.0000
      2 N           2.2616    9.0098   14.4829 N.pl3   1  UNL1        0.0000
      3 N           0.6708    7.0450   14.1358 N.3     1  UNL1        0.0000
      4 C           2.8730   10.2309   14.8146 C.ar    1  UNL1        0.0000
      5 C           2.2343   11.4521   14.5497 C.ar    1  UNL1        0.0000
      6 C           2.8605   12.6409   14.8922 C.ar    1  UNL1        0.0000
      7 H           2.3570   13.5740   14.6827 H       1  UNL1        0.0000
      8 C           4.1064   12.6496   15.4905 C.ar    1  UNL1        0.0000
      9 H           4.5818   13.5837   15.7512 H       1  UNL1        0.0000
     10 C           4.7360   11.4478   15.7551 C.ar    1  UNL1        0.0000
     11 H           5.7067   11.4394   16.2308 H       1  UNL1        0.0000
     12 C           4.1335   10.2417   15.4312 C.ar    1  UNL1        0.0000
     13 C           0.8756   11.4981   13.9207 C.3     1  UNL1        0.0000
     14 H           0.1069   11.5513   14.6901 H       1  UNL1        0.0000
     15 H           0.7075   10.6092   13.3177 H       1  UNL1        0.0000
     16 H           0.7829   12.3737   13.2831 H       1  UNL1        0.0000
     17 C           4.8147    8.9530   15.7845 C.3     1  UNL1        0.0000
     18 H           5.8966    9.0549   15.7208 H       1  UNL1        0.0000
     19 H           4.4783    8.1454   15.1312 H       1  UNL1        0.0000
     20 H           4.5652    8.6723   16.8081 H       1  UNL1        0.0000
     21 C          -0.4330    9.1315   16.0776 C.3     1  UNL1        0.0000
     22 H          -1.0762    8.4704   16.6497 H       1  UNL1        0.0000
     23 H          -1.0269    9.5625   15.2804 H       1  UNL1        0.0000
     24 H          -0.1333    9.9377   16.7369 H       1  UNL1        0.0000
     25 C           1.7485    7.2732   17.0145 C.3     1  UNL1        0.0000
     26 H           0.9676    6.6678   17.4646 H       1  UNL1        0.0000
     27 H           2.0669    7.9939   17.7617 H       1  UNL1        0.0000
     28 H           2.5925    6.6252   16.8018 H       1  UNL1        0.0000
     29 C          -0.4259    7.5260   13.2974 C.3     1  UNL1        0.0000
     30 H          -1.3799    7.4968   13.8394 H       1  UNL1        0.0000
     31 H          -0.5282    6.8926   12.4102 H       1  UNL1        0.0000
     32 H          -0.2337    8.5561   12.9896 H       1  UNL1        0.0000
     33 C           0.3719    5.6795   14.5540 C.3     1  UNL1        0.0000
     34 H          -0.5709    5.6321   15.1120 H       1  UNL1        0.0000
     35 H           1.1689    5.3006   15.1881 H       1  UNL1        0.0000
     36 H           0.2843    5.0274   13.6807 H       1  UNL1        0.0000
@<TRIPOS>BOND
     1    31    29    1
     2    32    29    1
     3    16    13    1
     4    29    30    1
     5    29     3    1
     6    15    13    1
     7    36    33    1
     8    13     5    1
     9    13    14    1
    10     3    33    1
    11     3     1    1
    12     2     4    1
    13     2     1    1
    14     5     4   ar
    15     5     6   ar
    16    33    34    1
    17    33    35    1
    18     7     6    1
    19     4    12   ar
    20     6     8   ar
    21    19    17    1
    22    23    21    1
    23    12    10   ar
    24    12    17    1
    25     1    21    1
    26     1    25    1
    27     8     9    1
    28     8    10   ar
    29    18    17    1
    30    10    11    1
    31    17    20    1
    32    21    22    1
    33    21    24    1
    34    28    25    1
    35    25    26    1
    36    25    27    1
