@<TRIPOS>MOLECULE
2,3
 36 36 0 0 0
SMALL
GASTEIGER

@<TRIPOS>ATOM
      1 SI          4.3694    8.2054   10.5746 Si      1  UNL1        0.0000
      2 N           3.2314    9.0100   11.5530 N.pl3   1  UNL1        0.0000
      3 N           4.8219    7.0449   11.9002 N.3     1  UNL1        0.0000
      4 C           2.6200   10.2310   11.2212 C.ar    1  UNL1        0.0000
      5 C           3.2585   11.4522   11.4861 C.ar    1  UNL1        0.0000
      6 C           2.6322   12.6410   11.1437 C.ar    1  UNL1        0.0000
      7 H           3.1357   13.5741   11.3531 H       1  UNL1        0.0000
      8 C           1.3862   12.6496   10.5454 C.ar    1  UNL1        0.0000
      9 H           0.9108   13.5836   10.2848 H       1  UNL1        0.0000
     10 C           0.7568   11.4477   10.2810 C.ar    1  UNL1        0.0000
     11 H          -0.2140   11.4393    9.8053 H       1  UNL1        0.0000
     12 C           1.3594   10.2417   10.6048 C.ar    1  UNL1        0.0000
     13 C           4.6172   11.4983   12.1150 C.3     1  UNL1        0.0000
     14 H           5.3859   11.5518   11.3456 H       1  UNL1        0.0000
     15 H           4.7856   10.6094   12.7179 H       1  UNL1        0.0000
     16 H           4.7099   12.3738   12.7528 H       1  UNL1        0.0000
     17 C           0.6782    8.9530   10.2516 C.3     1  UNL1        0.0000
     18 H          -0.4038    9.0549   10.3150 H       1  UNL1        0.0000
     19 H           1.0143    8.1456   10.9052 H       1  UNL1        0.0000
     20 H           0.9279    8.6720    9.2282 H       1  UNL1        0.0000
     21 C           5.9264    9.1314    9.9588 C.3     1  UNL1        0.0000
     22 H           6.5700    8.4690    9.3879 H       1  UNL1        0.0000
     23 H           6.5193    9.5629   10.7568 H       1  UNL1        0.0000
     24 H           5.6268    9.9372    9.2983 H       1  UNL1        0.0000
     25 C           3.7445    7.2738    9.0214 C.3     1  UNL1        0.0000
     26 H           4.5257    6.6687    8.5713 H       1  UNL1        0.0000
     27 H           3.4260    7.9947    8.2742 H       1  UNL1        0.0000
     28 H           2.9007    6.6254    9.2340 H       1  UNL1        0.0000
     29 C           5.9185    7.5258   12.7388 C.3     1  UNL1        0.0000
     30 H           6.8725    7.4967   12.1969 H       1  UNL1        0.0000
     31 H           6.0207    6.8922   13.6258 H       1  UNL1        0.0000
     32 H           5.7263    8.5559   13.0467 H       1  UNL1        0.0000
     33 C           5.1206    5.6795   11.4819 C.3     1  UNL1        0.0000
     34 H           6.0636    5.6320   10.9240 H       1  UNL1        0.0000
     35 H           4.3237    5.3008   10.8476 H       1  UNL1        0.0000
     36 H           5.2081    5.0272   12.3552 H       1  UNL1        0.0000
@<TRIPOS>BOND
     1    27    25    1
     2    26    25    1
     3    25    28    1
     4    25     1    1
     5    20    17    1
     6    24    21    1
     7    22    21    1
     8    11    10    1
     9    21     1    1
    10    21    23    1
    11    17    18    1
    12    17    12    1
    13    17    19    1
    14    10     8   ar
    15    10    12   ar
    16     9     8    1
    17     8     6   ar
    18     1     2    1
    19     1     3    1
    20    12     4   ar
    21    35    33    1
    22    34    33    1
    23     6     7    1
    24     6     5   ar
    25     4     5   ar
    26     4     2    1
    27    14    13    1
    28    33     3    1
    29    33    36    1
    30     5    13    1
    31     3    29    1
    32    13    15    1
    33    13    16    1
    34    30    29    1
    35    29    32    1
    36    29    31    1
