@<TRIPOS>MOLECULE
2,3
 31 31 0 0 0
SMALL
GASTEIGER

@<TRIPOS>ATOM
      1 SI         -0.4980    5.5544    1.3894 Si      1  UNL1        0.0000
      2 N          -0.6534    6.9866    3.7481 N.ar    1  UNL1        0.0000
      3 N          -1.3520    7.9024    4.4284 N.ar    1  UNL1        0.0000
      4 N          -2.3983    8.2888    3.7482 N.ar    1  UNL1        0.0000
      5 C          -1.2848    6.7818    2.5693 C.ar    1  UNL1        0.0000
      6 C          -2.4055    7.6329    2.5864 C.ar    1  UNL1        0.0000
      7 C          -3.5151    7.8380    1.5970 C.3     1  UNL1        0.0000
      8 C          -4.4898    6.6576    1.7036 C.3     1  UNL1        0.0000
      9 H          -5.3027    6.7738    0.9892 H       1  UNL1        0.0000
     10 H          -4.9134    6.6116    2.7046 H       1  UNL1        0.0000
     11 H          -3.9783    5.7201    1.5031 H       1  UNL1        0.0000
     12 C          -4.2562    9.1354    1.9349 C.3     1  UNL1        0.0000
     13 H          -3.5841    9.9857    1.8513 H       1  UNL1        0.0000
     14 H          -4.6288    9.1006    2.9543 H       1  UNL1        0.0000
     15 H          -5.0928    9.2797    1.2538 H       1  UNL1        0.0000
     16 C          -2.9658    7.9335    0.1721 C.3     1  UNL1        0.0000
     17 H          -2.5230    6.9912   -0.1350 H       1  UNL1        0.0000
     18 H          -2.2064    8.7102    0.1106 H       1  UNL1        0.0000
     19 H          -3.7691    8.1804   -0.5200 H       1  UNL1        0.0000
     20 C          -1.6994    4.2560    0.6650 C.3     1  UNL1        0.0000
     21 H          -2.3837    4.6813   -0.0617 H       1  UNL1        0.0000
     22 H          -2.2939    3.7827    1.4411 H       1  UNL1        0.0000
     23 H          -1.1412    3.4734    0.1594 H       1  UNL1        0.0000
     24 C           0.7990    4.5847    2.4088 C.3     1  UNL1        0.0000
     25 H           1.2439    3.7814    1.8271 H       1  UNL1        0.0000
     26 H           0.3474    4.1489    3.2960 H       1  UNL1        0.0000
     27 H           1.5953    5.2455    2.7387 H       1  UNL1        0.0000
     28 C           0.4511    6.4230   -0.0269 C.3     1  UNL1        0.0000
     29 H           1.0258    5.7027   -0.6023 H       1  UNL1        0.0000
     30 H           1.1467    7.1614    0.3617 H       1  UNL1        0.0000
     31 H          -0.2126    6.9345   -0.7157 H       1  UNL1        0.0000
@<TRIPOS>BOND
     1    31    28    1
     2    29    28    1
     3    19    16    1
     4    17    16    1
     5    21    20    1
     6    28    30    1
     7    28     1    1
     8    18    16    1
     9    23    20    1
    10    16     7    1
    11    20     1    1
    12    20    22    1
    13     9     8    1
    14    15    12    1
    15     1    24    1
    16     1     5    1
    17    11     8    1
    18     7     8    1
    19     7    12    1
    20     7     6    1
    21     8    10    1
    22    25    24    1
    23    13    12    1
    24    12    14    1
    25    24    27    1
    26    24    26    1
    27     5     6   ar
    28     5     2   ar
    29     6     4   ar
    30     2     3   ar
    31     4     3   ar
