@<TRIPOS>MOLECULE
4,5
 50 49 0 0 0
SMALL
GASTEIGER

@<TRIPOS>ATOM
      1 SI          0.5135    2.4112   11.4585 Si      1  UNL1        0.0000
      2 SI          2.0949    0.3949    9.6415 Si      1  UNL1        0.0000
      3 N           0.8203    1.5503    9.9610 N.3     1  UNL1        0.0000
      4 N          -1.0353    1.0538    8.4983 N.3     1  UNL1        0.0000
      5 N           0.1039    2.8810    8.0836 N.3     1  UNL1        0.0000
      6 C          -0.0253    1.8669    8.8674 C.3     1  UNL1        0.0000
      7 C           1.2830    3.7006    8.0322 C.3     1  UNL1        0.0000
      8 H           1.8711    3.6086    8.9601 H       1  UNL1        0.0000
      9 C          -1.6597    0.1075    9.3896 C.3     1  UNL1        0.0000
     10 H          -0.9539   -0.1753   10.1856 H       1  UNL1        0.0000
     11 C          -2.0518   -1.1317    8.5820 C.3     1  UNL1        0.0000
     12 H          -2.7410   -0.8394    7.7918 H       1  UNL1        0.0000
     13 H          -2.5341   -1.8696    9.2182 H       1  UNL1        0.0000
     14 H          -1.1720   -1.5784    8.1235 H       1  UNL1        0.0000
     15 C           2.0934   -0.9584   10.9882 C.3     1  UNL1        0.0000
     16 H           2.3569   -0.5483   11.9572 H       1  UNL1        0.0000
     17 H           2.8281   -1.7207   10.7495 H       1  UNL1        0.0000
     18 H           1.1310   -1.4508   11.0865 H       1  UNL1        0.0000
     19 C           0.8627    5.1574    7.8389 C.3     1  UNL1        0.0000
     20 H           0.3278    5.2500    6.8988 H       1  UNL1        0.0000
     21 H           1.7363    5.8054    7.8212 H       1  UNL1        0.0000
     22 H           0.2064    5.4732    8.6449 H       1  UNL1        0.0000
     23 C          -0.6684    3.8710   11.1354 C.3     1  UNL1        0.0000
     24 H          -0.1234    4.8072   11.0636 H       1  UNL1        0.0000
     25 H          -1.3927    3.9777   11.9377 H       1  UNL1        0.0000
     26 H          -1.2101    3.7378   10.2046 H       1  UNL1        0.0000
     27 C          -2.9067    0.7363   10.0239 C.3     1  UNL1        0.0000
     28 H          -2.6360    1.6387   10.5654 H       1  UNL1        0.0000
     29 H          -3.3809    0.0375   10.7099 H       1  UNL1        0.0000
     30 H          -3.6147    1.0028    9.2426 H       1  UNL1        0.0000
     31 C           2.1531    3.0576   12.1852 C.3     1  UNL1        0.0000
     32 H           2.7816    2.2431   12.5289 H       1  UNL1        0.0000
     33 H           1.9546    3.6967   13.0396 H       1  UNL1        0.0000
     34 H           2.7236    3.6370   11.4670 H       1  UNL1        0.0000
     35 C           3.8213    1.2157    9.6467 C.3     1  UNL1        0.0000
     36 H           3.8450    2.1464    9.0898 H       1  UNL1        0.0000
     37 H           4.5589    0.5512    9.2064 H       1  UNL1        0.0000
     38 H           4.1481    1.4320   10.6580 H       1  UNL1        0.0000
     39 C          -0.2732    1.2515   12.7605 C.3     1  UNL1        0.0000
     40 H          -1.2663    0.9186   12.4769 H       1  UNL1        0.0000
     41 H          -0.3627    1.7694   13.7106 H       1  UNL1        0.0000
     42 H           0.3327    0.3679   12.9294 H       1  UNL1        0.0000
     43 C           1.7998   -0.4281    7.9494 C.3     1  UNL1        0.0000
     44 H           1.2056   -1.3312    8.0570 H       1  UNL1        0.0000
     45 H           2.7369   -0.7127    7.4798 H       1  UNL1        0.0000
     46 H           1.2705    0.2426    7.2671 H       1  UNL1        0.0000
     47 C           2.1177    3.2356    6.8335 C.3     1  UNL1        0.0000
     48 H           2.5896    2.2802    7.0441 H       1  UNL1        0.0000
     49 H           2.8861    3.9658    6.5892 H       1  UNL1        0.0000
     50 H           1.4485    3.1040    5.9849 H       1  UNL1        0.0000
@<TRIPOS>BOND
     1    50    47    1
     2    49    47    1
     3    47    48    1
     4    47     7    1
     5    20    19    1
     6    46    43    1
     7    45    43    1
     8    12    11    1
     9    21    19    1
    10    19     7    1
    11    19    22    1
    12    43    44    1
    13    43     2    1
    14     7     5    1
    15     7     8    1
    16     5     6    1
    17    14    11    1
    18     4     6    1
    19     4     9    1
    20    11    13    1
    21    11     9    1
    22     6     3    1
    23    36    35    1
    24    37    35    1
    25    30    27    1
    26     9    27    1
    27     9    10    1
    28     2    35    1
    29     2     3    1
    30     2    15    1
    31    35    38    1
    32     3     1    1
    33    27    28    1
    34    27    29    1
    35    26    23    1
    36    17    15    1
    37    15    18    1
    38    15    16    1
    39    24    23    1
    40    23     1    1
    41    23    25    1
    42     1    31    1
    43     1    39    1
    44    34    31    1
    45    31    32    1
    46    31    33    1
    47    40    39    1
    48    39    42    1
    49    39    41    1
