@<TRIPOS>MOLECULE
4,5
 50 49 0 0 0
SMALL
GASTEIGER

@<TRIPOS>ATOM
      1 SI         -1.0032    2.3991    1.7385 Si      1  UNL1        0.0000
      2 SI         -2.9794    0.2515    2.9848 Si      1  UNL1        0.0000
      3 N          -1.6889    1.4301    3.0251 N.3     1  UNL1        0.0000
      4 N          -0.0921    0.9097    4.7674 N.3     1  UNL1        0.0000
      5 N          -1.5754    2.4162    5.2183 N.3     1  UNL1        0.0000
      6 C          -1.1109    1.6008    4.3086 C.3     1  UNL1        0.0000
      7 C          -2.7406    3.2447    5.0790 C.3     1  UNL1        0.0000
      8 H          -3.1173    3.2073    4.0454 H       1  UNL1        0.0000
      9 C           0.5975   -0.0699    3.9672 C.3     1  UNL1        0.0000
     10 H           0.1523   -0.1003    2.9627 H       1  UNL1        0.0000
     11 C           0.4814   -1.4639    4.5912 C.3     1  UNL1        0.0000
     12 H           0.9089   -1.4568    5.5893 H       1  UNL1        0.0000
     13 H           1.0136   -2.1931    3.9838 H       1  UNL1        0.0000
     14 H          -0.5615   -1.7586    4.6604 H       1  UNL1        0.0000
     15 C          -2.6058   -1.0663    1.6551 C.3     1  UNL1        0.0000
     16 H          -2.6071   -0.6272    0.6630 H       1  UNL1        0.0000
     17 H          -3.3660   -1.8408    1.6669 H       1  UNL1        0.0000
     18 H          -1.6438   -1.5463    1.8048 H       1  UNL1        0.0000
     19 C          -2.3586    4.6827    5.4379 C.3     1  UNL1        0.0000
     20 H          -1.9535    4.6868    6.4460 H       1  UNL1        0.0000
     21 H          -3.2256    5.3381    5.3881 H       1  UNL1        0.0000
     22 H          -1.5979    5.0509    4.7556 H       1  UNL1        0.0000
     23 C           0.0888    3.7545    2.5133 C.3     1  UNL1        0.0000
     24 H          -0.4555    4.6866    2.6286 H       1  UNL1        0.0000
     25 H           0.9611    3.9605    1.9001 H       1  UNL1        0.0000
     26 H           0.4306    3.4503    3.4972 H       1  UNL1        0.0000
     27 C           2.0718    0.3312    3.8462 C.3     1  UNL1        0.0000
     28 H           2.1531    1.3136    3.3887 H       1  UNL1        0.0000
     29 H           2.6164   -0.3896    3.2397 H       1  UNL1        0.0000
     30 H           2.5203    0.3767    4.8349 H       1  UNL1        0.0000
     31 C          -2.4072    3.1919    0.7202 C.3     1  UNL1        0.0000
     32 H          -2.9422    2.4489    0.1383 H       1  UNL1        0.0000
     33 H          -1.9985    3.9160    0.0231 H       1  UNL1        0.0000
     34 H          -3.1278    3.7081    1.3457 H       1  UNL1        0.0000
     35 C          -4.6640    1.0481    2.5608 C.3     1  UNL1        0.0000
     36 H          -4.9597    1.8080    3.2768 H       1  UNL1        0.0000
     37 H          -5.4405    0.2893    2.5488 H       1  UNL1        0.0000
     38 H          -4.6491    1.5099    1.5803 H       1  UNL1        0.0000
     39 C           0.0596    1.3537    0.5395 C.3     1  UNL1        0.0000
     40 H           0.9975    1.0430    0.9895 H       1  UNL1        0.0000
     41 H           0.2995    1.9338   -0.3468 H       1  UNL1        0.0000
     42 H          -0.4610    0.4595    0.2123 H       1  UNL1        0.0000
     43 C          -3.1465   -0.6088    4.6855 C.3     1  UNL1        0.0000
     44 H          -2.8713   -1.6579    4.6320 H       1  UNL1        0.0000
     45 H          -4.1690   -0.5679    5.0497 H       1  UNL1        0.0000
     46 H          -2.5046   -0.1305    5.4297 H       1  UNL1        0.0000
     47 C          -3.8154    2.7463    6.0525 C.3     1  UNL1        0.0000
     48 H          -4.1933    1.7765    5.7424 H       1  UNL1        0.0000
     49 H          -4.6443    3.4482    6.1086 H       1  UNL1        0.0000
     50 H          -3.3560    2.6470    7.0359 H       1  UNL1        0.0000
@<TRIPOS>BOND
     1    41    39    1
     2    33    31    1
     3    32    31    1
     4    42    39    1
     5    39    40    1
     6    39     1    1
     7    16    15    1
     8    31    34    1
     9    31     1    1
    10    38    35    1
    11    15    17    1
    12    15    18    1
    13    15     2    1
    14     1    23    1
    15     1     3    1
    16    25    23    1
    17    23    24    1
    18    23    26    1
    19    37    35    1
    20    35     2    1
    21    35    36    1
    22    10     9    1
    23     2     3    1
    24     2    43    1
    25     3     6    1
    26    29    27    1
    27    28    27    1
    28    27     9    1
    29    27    30    1
    30     9    11    1
    31     9     4    1
    32    13    11    1
    33     8     7    1
    34     6     4    1
    35     6     5    1
    36    11    14    1
    37    11    12    1
    38    44    43    1
    39    43    45    1
    40    43    46    1
    41    22    19    1
    42     7     5    1
    43     7    19    1
    44     7    47    1
    45    21    19    1
    46    19    20    1
    47    48    47    1
    48    47    49    1
    49    47    50    1
