@<TRIPOS>MOLECULE
1,2
 64 65 0 0 0
SMALL
GASTEIGER

@<TRIPOS>ATOM
      1 N           0.4140   -7.8224   -5.0335 N.pl3   1  UNL1       -0.2208
      2 N           0.3915   -6.6179   -2.5003 N.pl3   1  UNL1       -0.2208
      3 C          -0.0970   -6.0872   -1.3155 C.ar    1  UNL1        0.0599
      4 C          -0.9884   -9.4656   -6.2223 C.ar    1  UNL1       -0.0216
      5 C           0.3734   -5.5162   -8.2301 C.3     1  UNL1       -0.0586
      6 H           0.1205   -5.8289   -9.2411 H       1  UNL1        0.0235
      7 H           0.9381   -4.5869   -8.2953 H       1  UNL1        0.0235
      8 H          -0.5532   -5.3270   -7.6900 H       1  UNL1        0.0235
      9 C           1.7866   -4.3675   -1.3822 C.3     1  UNL1       -0.0197
     10 H           1.9386   -4.8649   -2.3660 H       1  UNL1        0.0344
     11 C          -3.2905   -9.5964   -5.2708 C.3     1  UNL1       -0.0586
     12 H          -3.4389   -8.5548   -5.5463 H       1  UNL1        0.0235
     13 H          -3.8693   -9.8034   -4.3724 H       1  UNL1        0.0235
     14 H          -3.6728  -10.2209   -6.0742 H       1  UNL1        0.0235
     15 C           0.5494   -8.5832   -3.8692 C.2     1  UNL1        0.0331
     16 H           0.7214   -9.6541   -3.9635 H       1  UNL1        0.0815
     17 C          -1.8050   -9.8695   -5.0101 C.3     1  UNL1       -0.0197
     18 H          -1.5142   -9.2494   -4.1593 H       1  UNL1        0.0344
     19 C           1.2019   -6.6014   -7.5283 C.3     1  UNL1       -0.0197
     20 H           1.4217   -6.2523   -6.4916 H       1  UNL1        0.0344
     21 C           1.6023   -2.8666   -1.6307 C.3     1  UNL1       -0.0586
     22 H           0.6709   -2.6789   -2.1594 H       1  UNL1        0.0235
     23 H           2.4315   -2.4789   -2.2211 H       1  UNL1        0.0235
     24 H           1.5755   -2.3206   -0.6904 H       1  UNL1        0.0235
     25 C          -2.1279   -7.6546   -1.3188 C.3     1  UNL1       -0.0197
     26 H          -1.7020   -7.9270   -2.2881 H       1  UNL1        0.0344
     27 C          -1.5935  -11.3355   -4.6264 C.3     1  UNL1       -0.0586
     28 H          -1.9349  -11.9981   -5.4180 H       1  UNL1        0.0235
     29 H          -2.1494  -11.5704   -3.7207 H       1  UNL1        0.0235
     30 H          -0.5404  -11.5405   -4.4455 H       1  UNL1        0.0235
     31 C          -1.2741  -10.0916   -7.4245 C.ar    1  UNL1       -0.0565
     32 H          -1.9609  -10.9250   -7.4326 H       1  UNL1        0.0621
     33 C          -3.5283   -7.0910   -1.5802 C.3     1  UNL1       -0.0586
     34 H          -4.0480   -6.8818   -0.6485 H       1  UNL1        0.0235
     35 H          -4.1183   -7.8086   -2.1470 H       1  UNL1        0.0235
     36 H          -3.4617   -6.1680   -2.1514 H       1  UNL1        0.0235
     37 C           0.0661   -8.5347   -8.6201 C.ar    1  UNL1       -0.0565
     38 H           0.4328   -8.1519   -9.5611 H       1  UNL1        0.0621
     39 C           0.1149   -4.4661    0.4751 C.ar    1  UNL1       -0.0565
     40 H           0.6331   -3.6322    0.9245 H       1  UNL1        0.0621
     41 C          -0.0527   -8.3968   -6.1966 C.ar    1  UNL1        0.0599
     42 C          -0.7259   -9.6675   -8.6193 C.ar    1  UNL1       -0.0611
     43 H          -0.9503  -10.1821   -9.5412 H       1  UNL1        0.0618
     44 C          -1.6561   -6.0582    0.5342 C.ar    1  UNL1       -0.0565
     45 H          -2.5306   -6.4589    1.0250 H       1  UNL1        0.0621
     46 C           3.0277   -4.6041   -0.5137 C.3     1  UNL1       -0.0586
     47 H           2.9509   -4.0506    0.4196 H       1  UNL1        0.0235
     48 H           3.9255   -4.2774   -1.0351 H       1  UNL1        0.0235
     49 H           3.1283   -5.6590   -0.2723 H       1  UNL1        0.0235
     50 C          -1.2523   -6.5988   -0.6764 C.ar    1  UNL1       -0.0216
     51 C           0.5643   -4.9797   -0.7291 C.ar    1  UNL1       -0.0216
     52 C           0.5148   -8.0005   -2.6439 C.2     1  UNL1        0.0331
     53 H           0.6191   -8.6050   -1.7426 H       1  UNL1        0.0815
     54 C          -0.9786   -5.0089    1.1236 C.ar    1  UNL1       -0.0611
     55 H          -1.3085   -4.6071    2.0697 H       1  UNL1        0.0618
     56 C           2.5339   -6.7932   -8.2617 C.3     1  UNL1       -0.0586
     57 H           3.1139   -7.5873   -7.8006 H       1  UNL1        0.0235
     58 H           3.1166   -5.8737   -8.2305 H       1  UNL1        0.0235
     59 H           2.3683   -7.0519   -9.3047 H       1  UNL1        0.0235
     60 C           0.4000   -7.8864   -7.4444 C.ar    1  UNL1       -0.0216
     61 C          -2.2103   -8.9247   -0.4697 C.3     1  UNL1       -0.0586
     62 H          -1.2185   -9.3376   -0.2987 H       1  UNL1        0.0235
     63 H          -2.8122   -9.6759   -0.9774 H       1  UNL1        0.0235
     64 H          -2.6637   -8.7184    0.4968 H       1  UNL1        0.0235
@<TRIPOS>BOND
     1    38    37    1
     2    43    42    1
     3    59    56    1
     4     6     5    1
     5    37    42   ar
     6    37    60   ar
     7    42    31   ar
     8     7     5    1
     9    56    58    1
    10    56    57    1
    11    56    19    1
    12     5     8    1
    13     5    19    1
    14    19    60    1
    15    19    20    1
    16    60    41   ar
    17    32    31    1
    18    31     4   ar
    19     4    41   ar
    20     4    17    1
    21    41     1    1
    22    14    11    1
    23    12    11    1
    24    28    27    1
    25    11    17    1
    26    11    13    1
    27     1    15    1
    28    17    27    1
    29    17    18    1
    30    27    30    1
    31    27    29    1
    32    16    15    1
    33    15    52    2
    34    52     2    1
    35    52    53    1
    36     2     3    1
    37    10     9    1
    38    26    25    1
    39    23    21    1
    40    22    21    1
    41    36    33    1
    42    35    33    1
    43    21     9    1
    44    21    24    1
    45    33    25    1
    46    33    34    1
    47     9    51    1
    48     9    46    1
    49    25    50    1
    50    25    61    1
    51     3    51   ar
    52     3    50   ar
    53    48    46    1
    54    63    61    1
    55    51    39   ar
    56    50    44   ar
    57    46    49    1
    58    46    47    1
    59    61    62    1
    60    61    64    1
    61    39    40    1
    62    39    54   ar
    63    44    45    1
    64    44    54   ar
    65    54    55    1
