@<TRIPOS>MOLECULE
1,2
 64 65 0 0 0
SMALL
GASTEIGER

@<TRIPOS>ATOM
      1 N           8.7010    7.2033    2.2338 N.pl3   1  UNL1       -0.2208
      2 N           9.0445    4.7114    1.4413 N.pl3   1  UNL1       -0.2208
      3 C           8.1656    6.2000    3.0183 C.2     1  UNL1        0.0331
      4 H           7.6271    6.4599    3.9280 H       1  UNL1        0.0815
      5 C           7.5459    3.2900    0.1419 C.ar    1  UNL1       -0.0216
      6 C           8.8036    3.5182    0.7341 C.ar    1  UNL1        0.0599
      7 C           5.7859    7.6226    1.9038 C.3     1  UNL1       -0.0197
      8 H           6.3203    6.6756    1.8210 H       1  UNL1        0.0344
      9 C           9.0017    9.6039    2.5840 C.ar    1  UNL1       -0.0216
     10 C           8.3376    4.9156    2.6067 C.2     1  UNL1        0.0331
     11 H           7.9284    4.0634    3.1468 H       1  UNL1        0.0815
     12 C           8.1622    8.4913    2.3538 C.ar    1  UNL1        0.0599
     13 C          10.5025    9.4589    2.7042 C.3     1  UNL1       -0.0197
     14 H          10.7964    8.4808    2.2916 H       1  UNL1        0.0344
     15 C           9.7971    2.5265    0.6234 C.ar    1  UNL1       -0.0216
     16 C           5.1616    7.9331    0.5400 C.3     1  UNL1       -0.0586
     17 H           4.6127    8.8715    0.5636 H       1  UNL1        0.0235
     18 H           4.4706    7.1433    0.2534 H       1  UNL1        0.0235
     19 H           5.9384    8.0107   -0.2185 H       1  UNL1        0.0235
     20 C           6.7683    8.7131    2.2694 C.ar    1  UNL1       -0.0216
     21 C           6.4869    4.3667    0.1073 C.3     1  UNL1       -0.0197
     22 H           6.9540    5.3074    0.4219 H       1  UNL1        0.0344
     23 C           6.2611    9.9909    2.4551 C.ar    1  UNL1       -0.0565
     24 H           5.1954   10.1504    2.3907 H       1  UNL1        0.0621
     25 C           8.2380    1.0767   -0.5135 C.ar    1  UNL1       -0.0611
     26 H           8.0139    0.1244   -0.9708 H       1  UNL1        0.0618
     27 C           9.4925    1.3202    0.0106 C.ar    1  UNL1       -0.0565
     28 H          10.2415    0.5467   -0.0488 H       1  UNL1        0.0621
     29 C           7.0843   11.0652    2.7194 C.ar    1  UNL1       -0.0611
     30 H           6.6703   12.0500    2.8759 H       1  UNL1        0.0618
     31 C           4.7039    7.4505    2.9723 C.3     1  UNL1       -0.0586
     32 H           5.1556    7.2589    3.9431 H       1  UNL1        0.0235
     33 H           4.0614    6.6090    2.7221 H       1  UNL1        0.0235
     34 H           4.0827    8.3386    3.0549 H       1  UNL1        0.0235
     35 C           7.2806    2.0685   -0.4596 C.ar    1  UNL1       -0.0565
     36 H           6.3084    1.8886   -0.8923 H       1  UNL1        0.0621
     37 C           5.9524    4.5639   -1.3152 C.3     1  UNL1       -0.0586
     38 H           6.7731    4.6391   -2.0258 H       1  UNL1        0.0235
     39 H           5.3619    5.4758   -1.3692 H       1  UNL1        0.0235
     40 H           5.3166    3.7354   -1.6171 H       1  UNL1        0.0235
     41 C           8.4485   10.8611    2.7717 C.ar    1  UNL1       -0.0565
     42 H           9.0946   11.7003    2.9766 H       1  UNL1        0.0621
     43 C          11.1701    2.7429    1.2168 C.3     1  UNL1       -0.0197
     44 H          11.3537    3.8283    1.2689 H       1  UNL1        0.0344
     45 C          10.8925    9.4942    4.1861 C.3     1  UNL1       -0.0586
     46 H          10.6214   10.4509    4.6286 H       1  UNL1        0.0235
     47 H          11.9637    9.3469    4.3050 H       1  UNL1        0.0235
     48 H          10.3728    8.7083    4.7320 H       1  UNL1        0.0235
     49 C          12.2787    2.1116    0.3729 C.3     1  UNL1       -0.0586
     50 H          13.2508    2.4338    0.7352 H       1  UNL1        0.0235
     51 H          12.1822    2.4086   -0.6695 H       1  UNL1        0.0235
     52 H          12.2528    1.0261    0.4286 H       1  UNL1        0.0235
     53 C           5.3385    4.0308    1.0615 C.3     1  UNL1       -0.0586
     54 H           4.9169    3.0575    0.8191 H       1  UNL1        0.0235
     55 H           4.5497    4.7750    0.9817 H       1  UNL1        0.0235
     56 H           5.6886    4.0071    2.0906 H       1  UNL1        0.0235
     57 C          11.2424   10.5521    1.9271 C.3     1  UNL1       -0.0586
     58 H          10.8425   10.6433    0.9193 H       1  UNL1        0.0235
     59 H          12.3021   10.3172    1.8592 H       1  UNL1        0.0235
     60 H          11.1537   11.5178    2.4187 H       1  UNL1        0.0235
     61 C          11.1905    2.1738    2.6397 C.3     1  UNL1       -0.0586
     62 H          10.4256    2.6511    3.2502 H       1  UNL1        0.0235
     63 H          12.1594    2.3400    3.1054 H       1  UNL1        0.0235
     64 H          10.9935    1.1033    2.6196 H       1  UNL1        0.0235
@<TRIPOS>BOND
     1    38    37    1
     2    40    37    1
     3    39    37    1
     4    37    21    1
     5    26    25    1
     6    36    35    1
     7    51    49    1
     8    25    35   ar
     9    25    27   ar
    10    35     5   ar
    11    19    16    1
    12    28    27    1
    13    27    15   ar
    14    21     5    1
    15    21    22    1
    16    21    53    1
    17     5     6   ar
    18    18    16    1
    19    49    52    1
    20    49    50    1
    21    49    43    1
    22    16    17    1
    23    16     7    1
    24    15     6   ar
    25    15    43    1
    26     6     2    1
    27    54    53    1
    28    58    57    1
    29    55    53    1
    30    53    56    1
    31    43    44    1
    32    43    61    1
    33     2    10    1
    34     8     7    1
    35    59    57    1
    36     7    20    1
    37     7    31    1
    38    57    60    1
    39    57    13    1
    40     1    12    1
    41     1     3    1
    42    20    12   ar
    43    20    23   ar
    44    14    13    1
    45    12     9   ar
    46    24    23    1
    47    23    29   ar
    48     9    13    1
    49     9    41   ar
    50    10     3    2
    51    10    11    1
    52    64    61    1
    53    61    63    1
    54    61    62    1
    55    13    45    1
    56    29    41   ar
    57    29    30    1
    58    33    31    1
    59    41    42    1
    60    31    34    1
    61    31    32    1
    62     3     4    1
    63    45    47    1
    64    45    46    1
    65    45    48    1
