@<TRIPOS>MOLECULE
1,2
 72 74 0 0 0
SMALL
GASTEIGER

@<TRIPOS>ATOM
      1 N          21.3907    6.7177   14.8956 N.3     1  UNL1       -0.2069
      2 N          19.5380    7.8661   15.2162 N.3     1  UNL1       -0.2069
      3 C          20.0593    6.7020   14.8302 C.3     1  UNL1        0.1676
      4 C          22.2886    5.8198   14.1896 C.3     1  UNL1        0.0222
      5 C          23.3915    5.2901   15.1144 C.3     1  UNL1       -0.0483
      6 C          22.9558    6.6274   13.0684 C.3     1  UNL1       -0.0483
      7 C          18.1724    8.0836   15.6623 C.3     1  UNL1        0.0222
      8 C          17.5678    9.3377   15.0187 C.3     1  UNL1       -0.0483
      9 C          18.2153    8.3039   17.1801 C.3     1  UNL1       -0.0483
     10 C          19.2481    5.5132   14.3767 C.ar    1  UNL1        0.0087
     11 C          19.2530    5.0930   13.0313 C.ar    1  UNL1       -0.0104
     12 C          18.4826    4.0021   12.6293 C.ar    1  UNL1       -0.0536
     13 C          17.7364    3.2721   13.5282 C.ar    1  UNL1       -0.0606
     14 C          17.7416    3.6614   14.8494 C.ar    1  UNL1       -0.0536
     15 C          18.4587    4.7768   15.2823 C.ar    1  UNL1       -0.0104
     16 C          20.0141    5.6988   11.9065 C.ar    1  UNL1       -0.0117
     17 C          19.6408    6.9411   11.3856 C.ar    1  UNL1       -0.0422
     18 C          20.2986    7.4524   10.2793 C.ar    1  UNL1       -0.0553
     19 C          21.3063    6.7416    9.6429 C.ar    1  UNL1       -0.0499
     20 C          21.6217    5.4838   10.1281 C.ar    1  UNL1       -0.0553
     21 C          20.9847    4.9442   11.2385 C.ar    1  UNL1       -0.0422
     22 C          18.4994    7.6912   11.9938 C.3     1  UNL1       -0.0391
     23 C          21.9948    7.3005    8.4352 C.3     1  UNL1       -0.0397
     24 C          21.3826    3.5540   11.6528 C.3     1  UNL1       -0.0391
     25 C          18.2728    5.0445   16.7333 C.ar    1  UNL1       -0.0117
     26 C          16.9999    5.3630   17.2194 C.ar    1  UNL1       -0.0422
     27 C          16.8096    5.5080   18.5876 C.ar    1  UNL1       -0.0553
     28 C          17.8395    5.3203   19.4936 C.ar    1  UNL1       -0.0499
     29 C          19.0831    4.9513   19.0002 C.ar    1  UNL1       -0.0553
     30 C          19.3052    4.7947   17.6419 C.ar    1  UNL1       -0.0422
     31 C          15.7998    5.5520   16.3325 C.3     1  UNL1       -0.0391
     32 C          17.6220    5.5075   20.9638 C.3     1  UNL1       -0.0397
     33 C          20.6324    4.3140   17.1493 C.3     1  UNL1       -0.0391
     34 H          21.7421    4.9681   13.7729 H       1  UNL1        0.0472
     35 H          23.0115    4.5763   15.8390 H       1  UNL1        0.0245
     36 H          23.8552    6.1205   15.6477 H       1  UNL1        0.0245
     37 H          24.1537    4.7936   14.5180 H       1  UNL1        0.0245
     38 H          22.2029    7.0667   12.4211 H       1  UNL1        0.0245
     39 H          23.5432    7.4376   13.5061 H       1  UNL1        0.0245
     40 H          23.6064    5.9945   12.4690 H       1  UNL1        0.0245
     41 H          17.5392    7.2242   15.4200 H       1  UNL1        0.0472
     42 H          17.3479    9.1945   13.9651 H       1  UNL1        0.0245
     43 H          18.2599   10.1738   15.1230 H       1  UNL1        0.0245
     44 H          16.6399    9.5912   15.5262 H       1  UNL1        0.0245
     45 H          18.6867    7.4581   17.6706 H       1  UNL1        0.0245
     46 H          17.2121    8.4265   17.5822 H       1  UNL1        0.0245
     47 H          18.8048    9.1968   17.3993 H       1  UNL1        0.0245
     48 H          18.4869    3.7312   11.5834 H       1  UNL1        0.0624
     49 H          17.1612    2.4175   13.2050 H       1  UNL1        0.0618
     50 H          17.1749    3.1032   15.5805 H       1  UNL1        0.0624
     51 H          20.0076    8.4189    9.8927 H       1  UNL1        0.0623
     52 H          22.3790    4.8966    9.6276 H       1  UNL1        0.0623
     53 H          17.6231    7.0481   12.0788 H       1  UNL1        0.0278
     54 H          18.7752    8.0206   12.9912 H       1  UNL1        0.0278
     55 H          18.2419    8.5595   11.3923 H       1  UNL1        0.0278
     56 H          22.0789    8.3823    8.5055 H       1  UNL1        0.0278
     57 H          22.9896    6.8757    8.3252 H       1  UNL1        0.0278
     58 H          21.4236    7.0636    7.5367 H       1  UNL1        0.0278
     59 H          22.4637    3.4927   11.7706 H       1  UNL1        0.0278
     60 H          21.0969    2.8452   10.8750 H       1  UNL1        0.0278
     61 H          20.9108    3.2434   12.5807 H       1  UNL1        0.0278
     62 H          15.8237    5.7639   18.9504 H       1  UNL1        0.0623
     63 H          19.8922    4.7618   19.6914 H       1  UNL1        0.0623
     64 H          16.0532    5.5277   15.2764 H       1  UNL1        0.0278
     65 H          15.0748    4.7603   16.5239 H       1  UNL1        0.0278
     66 H          15.3148    6.5014   16.5558 H       1  UNL1        0.0278
     67 H          16.5738    5.3761   21.2218 H       1  UNL1        0.0278
     68 H          18.2191    4.8010   21.5363 H       1  UNL1        0.0278
     69 H          17.9212    6.5142   21.2571 H       1  UNL1        0.0278
     70 H          21.2661    4.0088   17.9785 H       1  UNL1        0.0278
     71 H          21.1247    5.1145   16.6043 H       1  UNL1        0.0278
     72 H          20.5053    3.4693   16.4720 H       1  UNL1        0.0278
@<TRIPOS>BOND
     1    58    23    1
     2    57    23    1
     3    23    56    1
     4    23    19    1
     5    52    20    1
     6    19    20   ar
     7    19    18   ar
     8    51    18    1
     9    20    21   ar
    10    18    17   ar
    11    60    24    1
    12    21    24    1
    13    21    16   ar
    14    17    16   ar
    15    17    22    1
    16    55    22    1
    17    48    12    1
    18    24    59    1
    19    24    61    1
    20    16    11    1
    21    22    53    1
    22    22    54    1
    23    38     6    1
    24    40     6    1
    25    12    11   ar
    26    12    13   ar
    27    11    10   ar
    28     6    39    1
    29     6     4    1
    30    49    13    1
    31    13    14   ar
    32    34     4    1
    33    42     8    1
    34     4     1    1
    35     4     5    1
    36    10     3    1
    37    10    15   ar
    38    37     5    1
    39     3     1    1
    40     3     2    1
    41    14    15   ar
    42    14    50    1
    43     8    43    1
    44     8    44    1
    45     8     7    1
    46     5    36    1
    47     5    35    1
    48     2     7    1
    49    64    31    1
    50    15    25    1
    51    41     7    1
    52     7     9    1
    53    31    65    1
    54    31    66    1
    55    31    26    1
    56    72    33    1
    57    71    33    1
    58    25    26   ar
    59    25    30   ar
    60    33    30    1
    61    33    70    1
    62     9    47    1
    63     9    46    1
    64     9    45    1
    65    26    27   ar
    66    30    29   ar
    67    27    62    1
    68    27    28   ar
    69    29    28   ar
    70    29    63    1
    71    28    32    1
    72    32    67    1
    73    32    69    1
    74    32    68    1
