@<TRIPOS>MOLECULE
3,4
 38 38 0 0 0
SMALL
GASTEIGER

@<TRIPOS>ATOM
      1 SI          9.6898    0.7330   -5.1075 Si      1  UNL1        0.0000
      2 SI          9.0180    5.6213   -2.0497 Si      1  UNL1        0.0000
      3 N           9.6338    2.4404   -4.7773 N.pl3   1  UNL1        0.0000
      4 N           9.3151    4.5622   -3.3964 N.pl3   1  UNL1        0.0000
      5 C           8.5398    3.1985   -5.1395 C.ar    1  UNL1        0.0000
      6 C           8.3642    4.3737   -4.3724 C.ar    1  UNL1        0.0000
      7 C           7.2934    5.2149   -4.6452 C.ar    1  UNL1        0.0000
      8 H           7.1555    6.1094   -4.0584 H       1  UNL1        0.0000
      9 C           6.4131    4.9170   -5.6752 C.ar    1  UNL1        0.0000
     10 H           5.5919    5.5866   -5.8856 H       1  UNL1        0.0000
     11 C           6.5872    3.7722   -6.4294 C.ar    1  UNL1        0.0000
     12 H           5.9040    3.5413   -7.2338 H       1  UNL1        0.0000
     13 C           7.6422    2.9120   -6.1591 C.ar    1  UNL1        0.0000
     14 H           7.7706    2.0192   -6.7506 H       1  UNL1        0.0000
     15 C           8.0552   -0.1112   -4.5868 C.3     1  UNL1        0.0000
     16 H           7.9047   -0.0126   -3.5159 H       1  UNL1        0.0000
     17 H           8.0713   -1.1701   -4.8239 H       1  UNL1        0.0000
     18 H           7.1947    0.3277   -5.0794 H       1  UNL1        0.0000
     19 C          11.1035   -0.0420   -4.0895 C.3     1  UNL1        0.0000
     20 H          11.9435    0.6375   -3.9805 H       1  UNL1        0.0000
     21 H          11.4608   -0.9541   -4.5554 H       1  UNL1        0.0000
     22 H          10.7641   -0.2934   -3.0911 H       1  UNL1        0.0000
     23 C          10.0771    0.3046   -6.9460 C.3     1  UNL1        0.0000
     24 H           9.3696    0.7423   -7.6429 H       1  UNL1        0.0000
     25 H          10.0394   -0.7713   -7.0857 H       1  UNL1        0.0000
     26 H          11.0701    0.6310   -7.2425 H       1  UNL1        0.0000
     27 C           7.2749    5.2993   -1.3223 C.3     1  UNL1        0.0000
     28 H           6.6227    6.1589   -1.4371 H       1  UNL1        0.0000
     29 H           7.3304    5.0702   -0.2632 H       1  UNL1        0.0000
     30 H           6.7995    4.4598   -1.8201 H       1  UNL1        0.0000
     31 C          10.3200    5.2564   -0.7072 C.3     1  UNL1        0.0000
     32 H          10.1088    4.3173   -0.2077 H       1  UNL1        0.0000
     33 H          10.3194    6.0381    0.0452 H       1  UNL1        0.0000
     34 H          11.3231    5.1862   -1.1190 H       1  UNL1        0.0000
     35 C           9.1992    7.4770   -2.5390 C.3     1  UNL1        0.0000
     36 H          10.1736    7.8707   -2.2645 H       1  UNL1        0.0000
     37 H           8.4573    8.0846   -2.0305 H       1  UNL1        0.0000
     38 H           9.0704    7.6317   -3.6061 H       1  UNL1        0.0000
@<TRIPOS>BOND
     1    24    23    1
     2    26    23    1
     3    12    11    1
     4    25    23    1
     5    23     1    1
     6    14    13    1
     7    11    13   ar
     8    11     9   ar
     9    13     5   ar
    10    10     9    1
    11     9     7   ar
    12     5     3    1
    13     5     6   ar
    14     1     3    1
    15     1    15    1
    16     1    19    1
    17    18    15    1
    18    17    15    1
    19     7     6   ar
    20     7     8    1
    21    15    16    1
    22    21    19    1
    23     6     4    1
    24    19    20    1
    25    19    22    1
    26    38    35    1
    27     4     2    1
    28    35    36    1
    29    35     2    1
    30    35    37    1
    31     2    27    1
    32     2    31    1
    33    30    27    1
    34    28    27    1
    35    27    29    1
    36    34    31    1
    37    31    32    1
    38    31    33    1
