@<TRIPOS>MOLECULE
3,4
 38 38 0 0 0
SMALL
GASTEIGER

@<TRIPOS>ATOM
      1 SI          6.3388    2.9298    1.3015 Si      1  UNL1        0.0000
      2 SI          4.5520    3.8274    6.7896 Si      1  UNL1        0.0000
      3 N           6.0053    2.6409    2.9865 N.pl3   1  UNL1        0.0000
      4 N           5.2330    3.0255    5.4015 N.pl3   1  UNL1        0.0000
      5 C           7.0212    2.6747    3.9173 C.ar    1  UNL1        0.0000
      6 C           6.5963    2.8973    5.2477 C.ar    1  UNL1        0.0000
      7 C           7.5441    2.9680    6.2608 C.ar    1  UNL1        0.0000
      8 H           7.2281    3.1470    7.2760 H       1  UNL1        0.0000
      9 C           8.8920    2.8043    5.9782 C.ar    1  UNL1        0.0000
     10 H           9.6148    2.8532    6.7797 H       1  UNL1        0.0000
     11 C           9.3059    2.5776    4.6794 C.ar    1  UNL1        0.0000
     12 H          10.3549    2.4457    4.4577 H       1  UNL1        0.0000
     13 C           8.3756    2.5188    3.6523 C.ar    1  UNL1        0.0000
     14 H           8.7034    2.3414    2.6411 H       1  UNL1        0.0000
     15 C           7.2470    4.6004    1.0957 C.3     1  UNL1        0.0000
     16 H           6.5625    5.4272    1.2619 H       1  UNL1        0.0000
     17 H           7.6603    4.7046    0.0975 H       1  UNL1        0.0000
     18 H           8.0606    4.6992    1.8067 H       1  UNL1        0.0000
     19 C           4.6898    3.0297    0.3442 C.3     1  UNL1        0.0000
     20 H           4.4111    2.0774   -0.0949 H       1  UNL1        0.0000
     21 H           4.7788    3.7406   -0.4696 H       1  UNL1        0.0000
     22 H           3.8826    3.3637    0.9886 H       1  UNL1        0.0000
     23 C           7.3501    1.5133    0.4762 C.3     1  UNL1        0.0000
     24 H           8.4038    1.7641    0.4062 H       1  UNL1        0.0000
     25 H           6.9995    1.3262   -0.5346 H       1  UNL1        0.0000
     26 H           7.2751    0.5817    1.0308 H       1  UNL1        0.0000
     27 C           5.3629    5.5464    7.0120 C.3     1  UNL1        0.0000
     28 H           6.4238    5.5156    6.7867 H       1  UNL1        0.0000
     29 H           5.2482    5.9096    8.0282 H       1  UNL1        0.0000
     30 H           4.9069    6.2725    6.3457 H       1  UNL1        0.0000
     31 C           2.6778    4.0666    6.5198 C.3     1  UNL1        0.0000
     32 H           2.4405    4.1762    5.4665 H       1  UNL1        0.0000
     33 H           2.3431    4.9632    7.0293 H       1  UNL1        0.0000
     34 H           2.0960    3.2409    6.9151 H       1  UNL1        0.0000
     35 C           4.6810    2.8369    8.4362 C.3     1  UNL1        0.0000
     36 H           4.2445    1.8452    8.3563 H       1  UNL1        0.0000
     37 H           4.1393    3.3636    9.2161 H       1  UNL1        0.0000
     38 H           5.7018    2.7146    8.7822 H       1  UNL1        0.0000
@<TRIPOS>BOND
     1    25    23    1
     2    21    19    1
     3    20    19    1
     4    17    15    1
     5    19    22    1
     6    19     1    1
     7    24    23    1
     8    23    26    1
     9    23     1    1
    10    15    16    1
    11    15     1    1
    12    15    18    1
    13     1     3    1
    14    14    13    1
    15     3     5    1
    16    13     5   ar
    17    13    11   ar
    18     5     6   ar
    19    12    11    1
    20    11     9   ar
    21     6     4    1
    22     6     7   ar
    23     4     2    1
    24    32    31    1
    25     9     7   ar
    26     9    10    1
    27     7     8    1
    28    30    27    1
    29    31     2    1
    30    31    34    1
    31    31    33    1
    32    28    27    1
    33     2    27    1
    34     2    35    1
    35    27    29    1
    36    36    35    1
    37    35    38    1
    38    35    37    1
