@<TRIPOS>MOLECULE
1,2
 40 41 0 0 0
SMALL
GASTEIGER

@<TRIPOS>ATOM
      1 N           8.7998   16.6701   19.3126 N.pl3   1  UNL1       -0.2383
      2 N           7.4719   18.8710   20.5963 N.ar    1  UNL1       -0.2579
      3 C           9.3476   15.5178   18.7049 C.ar    1  UNL1        0.0554
      4 C           8.8272   15.0121   17.5029 C.ar    1  UNL1       -0.0220
      5 C           9.4449   13.9129   16.9204 C.ar    1  UNL1       -0.0565
      6 H           9.0554   13.5142   15.9967 H       1  UNL1        0.0621
      7 C          10.5376   13.3090   17.5072 C.ar    1  UNL1       -0.0611
      8 H          11.0033   12.4549   17.0382 H       1  UNL1        0.0618
      9 C          11.0154   13.7820   18.7152 C.ar    1  UNL1       -0.0565
     10 H          11.8445   13.2768   19.1838 H       1  UNL1        0.0621
     11 C          10.4318   14.8779   19.3323 C.ar    1  UNL1       -0.0220
     12 C           7.5977   15.5967   16.8418 C.3     1  UNL1       -0.0197
     13 H           7.3777   16.5674   17.2975 H       1  UNL1        0.0344
     14 C           7.7909   15.8067   15.3368 C.3     1  UNL1       -0.0586
     15 H           7.7536   14.8606   14.8022 H       1  UNL1        0.0235
     16 H           8.7443   16.2822   15.1265 H       1  UNL1        0.0235
     17 H           6.9946   16.4388   14.9492 H       1  UNL1        0.0235
     18 C           6.3918   14.6776   17.0681 C.3     1  UNL1       -0.0586
     19 H           6.1798   14.5548   18.1273 H       1  UNL1        0.0235
     20 H           6.5806   13.6931   16.6450 H       1  UNL1        0.0235
     21 H           5.5097   15.0976   16.5897 H       1  UNL1        0.0235
     22 C          10.8684   15.3278   20.7097 C.3     1  UNL1       -0.0197
     23 H          10.7658   16.4249   20.7638 H       1  UNL1        0.0344
     24 C           9.9326   14.7056   21.7532 C.3     1  UNL1       -0.0586
     25 H           9.9687   13.6193   21.6862 H       1  UNL1        0.0235
     26 H           8.9046   15.0243   21.5974 H       1  UNL1        0.0235
     27 H          10.2361   15.0036   22.7542 H       1  UNL1        0.0235
     28 C          12.3123   14.9640   21.0517 C.3     1  UNL1       -0.0586
     29 H          12.9952   15.2923   20.2729 H       1  UNL1        0.0235
     30 H          12.4239   13.8905   21.1876 H       1  UNL1        0.0235
     31 H          12.5965   15.4447   21.9846 H       1  UNL1        0.0235
     32 C           7.6165   16.5540   19.8437 C.3     1  UNL1        0.1100
     33 H           7.1083   15.5861   19.8314 H       1  UNL1        0.0606
     34 C           6.9361   17.6015   20.4838 C.ar    1  UNL1        0.0656
     35 C           5.6873   17.5548   21.1310 C.ar    1  UNL1       -0.0370
     36 H           5.0459   16.6964   21.2001 H       1  UNL1        0.0637
     37 C           5.4694   18.8168   21.6498 C.ar    1  UNL1       -0.0419
     38 H           4.6187   19.1532   22.2109 H       1  UNL1        0.0633
     39 C           6.5859   19.5807   21.3020 C.ar    1  UNL1        0.0280
     40 H           6.7689   20.6135   21.5511 H       1  UNL1        0.0829
@<TRIPOS>BOND
     1    15    14    1
     2    17    14    1
     3    16    14    1
     4    14    12    1
     5     6     5    1
     6    21    18    1
     7    20    18    1
     8    12    18    1
     9    12    13    1
    10    12     4    1
    11     5     4   ar
    12     5     7   ar
    13     8     7    1
    14    18    19    1
    15     4     3   ar
    16     7     9   ar
    17     3     1    1
    18     3    11   ar
    19     9    10    1
    20     9    11   ar
    21     1    32    1
    22    11    22    1
    23    33    32    1
    24    32    34    1
    25    29    28    1
    26    34     2   ar
    27    34    35   ar
    28     2    39   ar
    29    22    23    1
    30    22    28    1
    31    22    24    1
    32    28    30    1
    33    28    31    1
    34    35    36    1
    35    35    37   ar
    36    39    40    1
    37    39    37   ar
    38    26    24    1
    39    37    38    1
    40    25    24    1
    41    24    27    1
