@<TRIPOS>MOLECULE
3,4
 54 55 0 0 0
SMALL
GASTEIGER

@<TRIPOS>ATOM
      1 SI          6.0338    1.0273    5.3785 Si      1  UNL1        0.0000
      2 SI          0.8261    2.6485    1.1379 Si      1  UNL1        0.0000
      3 N           4.6662    1.6306    4.5073 N.pl3   1  UNL1        0.0000
      4 N           2.2201    1.9622    1.8996 N.pl3   1  UNL1        0.0000
      5 C           3.4668    1.9524    5.1195 C.ar    1  UNL1        0.0000
      6 C           2.2872    1.3190    4.6340 C.ar    1  UNL1        0.0000
      7 C           2.4251    0.2499    3.5840 C.ar    1  UNL1        0.0000
      8 C           2.3101    0.6135    2.2122 C.ar    1  UNL1        0.0000
      9 C           3.3733    2.7727    6.2540 C.ar    1  UNL1        0.0000
     10 H           4.2794    3.1865    6.6687 H       1  UNL1        0.0000
     11 C           2.1462    3.0239    6.8327 C.ar    1  UNL1        0.0000
     12 H           2.0835    3.6717    7.6944 H       1  UNL1        0.0000
     13 C           0.9986    2.4316    6.3340 C.ar    1  UNL1        0.0000
     14 H           0.0454    2.6214    6.8043 H       1  UNL1        0.0000
     15 C           1.0603    1.5470    5.2620 C.ar    1  UNL1        0.0000
     16 C          -0.1795    0.8064    4.8568 C.3     1  UNL1        0.0000
     17 H          -0.4196    0.0570    5.6120 H       1  UNL1        0.0000
     18 H          -0.0510    0.3028    3.9036 H       1  UNL1        0.0000
     19 H          -1.0247    1.4889    4.7916 H       1  UNL1        0.0000
     20 C           2.5330   -1.5170    5.3888 C.3     1  UNL1        0.0000
     21 H           1.5602   -1.9075    5.6899 H       1  UNL1        0.0000
     22 H           2.7837   -0.6839    6.0387 H       1  UNL1        0.0000
     23 H           3.2639   -2.3114    5.5269 H       1  UNL1        0.0000
     24 C           2.4863   -1.0978    3.9491 C.ar    1  UNL1        0.0000
     25 C           2.4460   -2.0744    2.9594 C.ar    1  UNL1        0.0000
     26 H           2.5098   -3.1141    3.2435 H       1  UNL1        0.0000
     27 C           2.2751   -1.7298    1.6294 C.ar    1  UNL1        0.0000
     28 H           2.1968   -2.5036    0.8801 H       1  UNL1        0.0000
     29 C           2.1871   -0.4044    1.2550 C.ar    1  UNL1        0.0000
     30 H           2.0112   -0.1245    0.2283 H       1  UNL1        0.0000
     31 C           6.8717   -0.1261    4.1087 C.3     1  UNL1        0.0000
     32 H           6.4301   -1.1188    4.1239 H       1  UNL1        0.0000
     33 H           7.9323   -0.2418    4.3021 H       1  UNL1        0.0000
     34 H           6.7477    0.2742    3.1035 H       1  UNL1        0.0000
     35 C           7.1799    2.4037    6.0628 C.3     1  UNL1        0.0000
     36 H           7.2004    3.2708    5.4111 H       1  UNL1        0.0000
     37 H           8.1978    2.0424    6.1673 H       1  UNL1        0.0000
     38 H           6.8559    2.7341    7.0467 H       1  UNL1        0.0000
     39 C           5.4855    0.0134    6.9110 C.3     1  UNL1        0.0000
     40 H           4.6608    0.4894    7.4348 H       1  UNL1        0.0000
     41 H           6.3084   -0.0751    7.6125 H       1  UNL1        0.0000
     42 H           5.1758   -0.9926    6.6493 H       1  UNL1        0.0000
     43 C           0.9354    2.8070   -0.7710 C.3     1  UNL1        0.0000
     44 H           1.9128    3.1225   -1.1172 H       1  UNL1        0.0000
     45 H           0.2083    3.5329   -1.1215 H       1  UNL1        0.0000
     46 H           0.7047    1.8631   -1.2581 H       1  UNL1        0.0000
     47 C          -0.7403    1.5789    1.4196 C.3     1  UNL1        0.0000
     48 H          -0.5093    0.5171    1.4185 H       1  UNL1        0.0000
     49 H          -1.4575    1.7553    0.6248 H       1  UNL1        0.0000
     50 H          -1.2359    1.8105    2.3558 H       1  UNL1        0.0000
     51 C           0.6391    4.3301    2.0279 C.3     1  UNL1        0.0000
     52 H          -0.0224    4.2558    2.8866 H       1  UNL1        0.0000
     53 H           0.2345    5.0927    1.3726 H       1  UNL1        0.0000
     54 H           1.6108    4.6697    2.3880 H       1  UNL1        0.0000
@<TRIPOS>BOND
     1    46    43    1
     2    45    43    1
     3    44    43    1
     4    43     2    1
     5    30    29    1
     6    49    47    1
     7    28    27    1
     8     2    47    1
     9     2     4    1
    10     2    51    1
    11    29    27   ar
    12    29     8   ar
    13    53    51    1
    14    48    47    1
    15    47    50    1
    16    27    25   ar
    17     4     8    1
    18    51    54    1
    19    51    52    1
    20     8     7   ar
    21    25    26    1
    22    25    24   ar
    23    34    31    1
    24     7    24   ar
    25     7     6    1
    26    18    16    1
    27    24    20    1
    28    31    32    1
    29    31    33    1
    30    31     1    1
    31     3     5    1
    32     3     1    1
    33     6     5   ar
    34     6    15   ar
    35    19    16    1
    36    16    15    1
    37    16    17    1
    38     5     9   ar
    39    15    13   ar
    40     1    35    1
    41     1    39    1
    42    20    23    1
    43    20    21    1
    44    20    22    1
    45    36    35    1
    46    35    37    1
    47    35    38    1
    48     9    10    1
    49     9    11   ar
    50    13    14    1
    51    13    11   ar
    52    42    39    1
    53    11    12    1
    54    39    40    1
    55    39    41    1
