@<TRIPOS>MOLECULE
3,4
 64 65 0 0 0
SMALL
GASTEIGER

@<TRIPOS>ATOM
      1 SI          1.3918    7.5790   -3.5634 Si      1  UNL1        0.0000
      2 SI          3.9325    7.6830   -5.4624 Si      1  UNL1        0.0000
      3 N           1.8274    4.8991   -5.6498 N.3     1  UNL1        0.0000
      4 N           3.2850    4.6701   -3.9697 N.3     1  UNL1        0.0000
      5 N           2.6343    6.8854   -4.5910 N.3     1  UNL1        0.0000
      6 C           1.1580    5.6438   -6.7000 C.3     1  UNL1        0.0000
      7 C           1.8391    5.3297   -8.0409 C.3     1  UNL1        0.0000
      8 C           1.1113    5.9768   -9.2155 C.3     1  UNL1        0.0000
      9 C          -0.3493    5.5417   -9.2533 C.3     1  UNL1        0.0000
     10 C          -1.0317    5.8983   -7.9371 C.3     1  UNL1        0.0000
     11 C          -0.3163    5.2263   -6.7695 C.3     1  UNL1        0.0000
     12 C           2.5823    5.4867   -4.7367 C.3     1  UNL1        0.0000
     13 C           4.0000    5.1322   -2.7945 C.3     1  UNL1        0.0000
     14 C           3.2946    4.5912   -1.5413 C.3     1  UNL1        0.0000
     15 C           4.0610    4.9291   -0.2660 C.3     1  UNL1        0.0000
     16 C           5.4887    4.3987   -0.3360 C.3     1  UNL1        0.0000
     17 C           6.1978    4.9764   -1.5560 C.3     1  UNL1        0.0000
     18 C           5.4426    4.6122   -2.8302 C.3     1  UNL1        0.0000
     19 C           0.4886    8.9849   -4.4858 C.3     1  UNL1        0.0000
     20 C           0.1326    6.2372   -3.0651 C.3     1  UNL1        0.0000
     21 C           2.1378    8.3232   -1.9693 C.3     1  UNL1        0.0000
     22 C           3.2525    8.7972   -6.8579 C.3     1  UNL1        0.0000
     23 C           5.0918    6.3856   -6.2422 C.3     1  UNL1        0.0000
     24 C           4.9331    8.7923   -4.2745 C.3     1  UNL1        0.0000
     25 H           1.2161    6.7223   -6.5044 H       1  UNL1        0.0000
     26 H           2.8702    5.6847   -8.0040 H       1  UNL1        0.0000
     27 H           1.8650    4.2405   -8.1645 H       1  UNL1        0.0000
     28 H           1.1571    7.0649   -9.1198 H       1  UNL1        0.0000
     29 H           1.6081    5.7035  -10.1489 H       1  UNL1        0.0000
     30 H          -0.8630    6.0279  -10.0855 H       1  UNL1        0.0000
     31 H          -0.4027    4.4620   -9.4088 H       1  UNL1        0.0000
     32 H          -2.0770    5.5823   -7.9597 H       1  UNL1        0.0000
     33 H          -1.0138    6.9825   -7.8015 H       1  UNL1        0.0000
     34 H          -0.3610    4.1387   -6.8939 H       1  UNL1        0.0000
     35 H          -0.8096    5.4824   -5.8305 H       1  UNL1        0.0000
     36 H           4.0155    6.2291   -2.7600 H       1  UNL1        0.0000
     37 H           2.2902    5.0146   -1.4922 H       1  UNL1        0.0000
     38 H           3.1941    3.5045   -1.6468 H       1  UNL1        0.0000
     39 H           4.0896    6.0138   -0.1326 H       1  UNL1        0.0000
     40 H           3.5440    4.5011    0.5956 H       1  UNL1        0.0000
     41 H           5.4680    3.3093   -0.4103 H       1  UNL1        0.0000
     42 H           6.0314    4.6643    0.5738 H       1  UNL1        0.0000
     43 H           7.2195    4.5942   -1.6113 H       1  UNL1        0.0000
     44 H           6.2530    6.0638   -1.4621 H       1  UNL1        0.0000
     45 H           5.9546    5.0257   -3.7005 H       1  UNL1        0.0000
     46 H           5.4141    3.5221   -2.9360 H       1  UNL1        0.0000
     47 H           0.1391    8.6861   -5.4687 H       1  UNL1        0.0000
     48 H          -0.3772    9.3027   -3.9137 H       1  UNL1        0.0000
     49 H           1.1284    9.8524   -4.6079 H       1  UNL1        0.0000
     50 H           0.5507    5.2422   -3.1899 H       1  UNL1        0.0000
     51 H          -0.7693    6.2927   -3.6666 H       1  UNL1        0.0000
     52 H          -0.1683    6.3473   -2.0274 H       1  UNL1        0.0000
     53 H           1.3707    8.8682   -1.4279 H       1  UNL1        0.0000
     54 H           2.9406    9.0202   -2.1812 H       1  UNL1        0.0000
     55 H           2.5281    7.5630   -1.3006 H       1  UNL1        0.0000
     56 H           2.8036    8.2248   -7.6631 H       1  UNL1        0.0000
     57 H           2.5079    9.4961   -6.4947 H       1  UNL1        0.0000
     58 H           4.0618    9.3801   -7.2867 H       1  UNL1        0.0000
     59 H           4.6050    5.4167   -6.3121 H       1  UNL1        0.0000
     60 H           5.9978    6.2571   -5.6583 H       1  UNL1        0.0000
     61 H           5.3960    6.6814   -7.2420 H       1  UNL1        0.0000
     62 H           5.2614    8.2651   -3.3846 H       1  UNL1        0.0000
     63 H           4.3560    9.6547   -3.9582 H       1  UNL1        0.0000
     64 H           5.8187    9.1658   -4.7784 H       1  UNL1        0.0000
@<TRIPOS>BOND
     1    29     8    1
     2    30     9    1
     3    31     9    1
     4     9     8    1
     5     9    10    1
     6     8    28    1
     7     8     7    1
     8    27     7    1
     9     7    26    1
    10     7     6    1
    11    32    10    1
    12    10    33    1
    13    10    11    1
    14    56    22    1
    15    58    22    1
    16    61    23    1
    17    34    11    1
    18    22    57    1
    19    22     2    1
    20    11     6    1
    21    11    35    1
    22     6    25    1
    23     6     3    1
    24    59    23    1
    25    23    60    1
    26    23     2    1
    27     3    12    1
    28    47    19    1
    29     2     5    1
    30     2    24    1
    31    64    24    1
    32    12     5    1
    33    12     4    1
    34    49    19    1
    35     5     1    1
    36    19    48    1
    37    19     1    1
    38    24    63    1
    39    24    62    1
    40     4    13    1
    41    45    18    1
    42    51    20    1
    43     1    20    1
    44     1    21    1
    45    50    20    1
    46    20    52    1
    47    46    18    1
    48    18    13    1
    49    18    17    1
    50    13    36    1
    51    13    14    1
    52    54    21    1
    53    21    53    1
    54    21    55    1
    55    38    14    1
    56    43    17    1
    57    17    44    1
    58    17    16    1
    59    14    37    1
    60    14    15    1
    61    41    16    1
    62    16    15    1
    63    16    42    1
    64    15    39    1
    65    15    40    1
