@<TRIPOS>MOLECULE
3,4
 64 65 0 0 0
SMALL
GASTEIGER

@<TRIPOS>ATOM
      1 SI          4.2412    6.7425   13.3881 Si      1  UNL1        0.0000
      2 SI          2.1764    7.9727   15.4209 Si      1  UNL1        0.0000
      3 N           4.1085    5.1922   16.4262 N.3     1  UNL1        0.0000
      4 N           2.2538    4.5593   15.3524 N.3     1  UNL1        0.0000
      5 N           3.1940    6.6875   14.7951 N.3     1  UNL1        0.0000
      6 C           5.0662    6.1757   16.8918 C.3     1  UNL1        0.0000
      7 C           4.7023    6.6131   18.3186 C.3     1  UNL1        0.0000
      8 C           5.7321    7.5878   18.8803 C.3     1  UNL1        0.0000
      9 C           7.1221    6.9607   18.8736 C.3     1  UNL1        0.0000
     10 C           7.4994    6.5412   17.4568 C.3     1  UNL1        0.0000
     11 C           6.4718    5.5629   16.8964 C.3     1  UNL1        0.0000
     12 C           3.1854    5.4813   15.5237 C.3     1  UNL1        0.0000
     13 C           1.2963    4.6146   14.2656 C.3     1  UNL1        0.0000
     14 C           1.7462    3.6803   13.1318 C.3     1  UNL1        0.0000
     15 C           0.7124    3.6176   12.0124 C.3     1  UNL1        0.0000
     16 C          -0.6369    3.1578   12.5538 C.3     1  UNL1        0.0000
     17 C          -1.1032    4.1002   13.6582 C.3     1  UNL1        0.0000
     18 C          -0.0737    4.1594   14.7823 C.3     1  UNL1        0.0000
     19 C           5.2872    5.1501   13.2965 C.3     1  UNL1        0.0000
     20 C           3.2304    6.9226   11.7774 C.3     1  UNL1        0.0000
     21 C           5.4069    8.2522   13.4765 C.3     1  UNL1        0.0000
     22 C           3.2016    9.3893   16.1923 C.3     1  UNL1        0.0000
     23 C           1.0130    7.2713   16.7567 C.3     1  UNL1        0.0000
     24 C           1.1465    8.7323   14.0062 C.3     1  UNL1        0.0000
     25 H           5.0585    7.0556   16.2355 H       1  UNL1        0.0000
     26 H           3.7110    7.0703   18.3110 H       1  UNL1        0.0000
     27 H           4.6540    5.7218   18.9512 H       1  UNL1        0.0000
     28 H           5.7458    8.4961   18.2724 H       1  UNL1        0.0000
     29 H           5.4548    7.8705   19.8982 H       1  UNL1        0.0000
     30 H           7.8555    7.6715   19.2610 H       1  UNL1        0.0000
     31 H           7.1266    6.0837   19.5245 H       1  UNL1        0.0000
     32 H           7.5445    7.4262   16.8172 H       1  UNL1        0.0000
     33 H           8.4889    6.0782   17.4552 H       1  UNL1        0.0000
     34 H           6.4524    4.6566   17.5120 H       1  UNL1        0.0000
     35 H           6.7432    5.2780   15.8787 H       1  UNL1        0.0000
     36 H           1.2149    5.6396   13.8781 H       1  UNL1        0.0000
     37 H           2.7048    4.0269   12.7432 H       1  UNL1        0.0000
     38 H           1.8972    2.6814   13.5510 H       1  UNL1        0.0000
     39 H           0.5990    4.6071   11.5613 H       1  UNL1        0.0000
     40 H           1.0555    2.9336   11.2331 H       1  UNL1        0.0000
     41 H          -1.3744    3.1309   11.7486 H       1  UNL1        0.0000
     42 H          -0.5397    2.1472   12.9562 H       1  UNL1        0.0000
     43 H          -1.2457    5.1014   13.2437 H       1  UNL1        0.0000
     44 H          -2.0636    3.7643   14.0558 H       1  UNL1        0.0000
     45 H           0.0402    3.1660   15.2311 H       1  UNL1        0.0000
     46 H          -0.4118    4.8451   15.5610 H       1  UNL1        0.0000
     47 H           5.2185    4.6873   12.3162 H       1  UNL1        0.0000
     48 H           6.3374    5.3564   13.4814 H       1  UNL1        0.0000
     49 H           4.9543    4.4245   14.0331 H       1  UNL1        0.0000
     50 H           2.7764    7.9043   11.7024 H       1  UNL1        0.0000
     51 H           3.8826    6.8037   10.9174 H       1  UNL1        0.0000
     52 H           2.4388    6.1866   11.6910 H       1  UNL1        0.0000
     53 H           5.9989    8.2787   14.3859 H       1  UNL1        0.0000
     54 H           6.0970    8.2298   12.6390 H       1  UNL1        0.0000
     55 H           4.8531    9.1829   13.4110 H       1  UNL1        0.0000
     56 H           3.6434    9.1134   17.1439 H       1  UNL1        0.0000
     57 H           4.0040    9.7132   15.5389 H       1  UNL1        0.0000
     58 H           2.5611   10.2482   16.3688 H       1  UNL1        0.0000
     59 H           0.8318    8.0008   17.5408 H       1  UNL1        0.0000
     60 H           0.0490    6.9969   16.3393 H       1  UNL1        0.0000
     61 H           1.4413    6.3834   17.2126 H       1  UNL1        0.0000
     62 H           0.3842    9.3859   14.4178 H       1  UNL1        0.0000
     63 H           1.7660    9.3344   13.3505 H       1  UNL1        0.0000
     64 H           0.6458    7.9871   13.3973 H       1  UNL1        0.0000
@<TRIPOS>BOND
     1    51    20    1
     2    40    15    1
     3    39    15    1
     4    52    20    1
     5    50    20    1
     6    41    16    1
     7    20     1    1
     8    15    16    1
     9    15    14    1
    10    47    19    1
    11    16    42    1
    12    16    17    1
    13    54    21    1
    14    37    14    1
    15    14    38    1
    16    14    13    1
    17    43    17    1
    18    19     1    1
    19    19    48    1
    20    19    49    1
    21    63    24    1
    22     1    21    1
    23     1     5    1
    24    64    24    1
    25    55    21    1
    26    21    53    1
    27    17    44    1
    28    17    18    1
    29    36    13    1
    30    24    62    1
    31    24     2    1
    32    13    18    1
    33    13     4    1
    34    18    45    1
    35    18    46    1
    36     5     2    1
    37     5    12    1
    38     4    12    1
    39     2    22    1
    40     2    23    1
    41    12     3    1
    42    57    22    1
    43    35    11    1
    44    22    58    1
    45    22    56    1
    46    25     6    1
    47    60    23    1
    48     3     6    1
    49    23    61    1
    50    23    59    1
    51    32    10    1
    52     6    11    1
    53     6     7    1
    54    11    10    1
    55    11    34    1
    56    33    10    1
    57    10     9    1
    58    28     8    1
    59    26     7    1
    60     7     8    1
    61     7    27    1
    62     9     8    1
    63     9    30    1
    64     9    31    1
    65     8    29    1
