@<TRIPOS>MOLECULE
1,2
 69 69 0 0 0
SMALL
GASTEIGER

@<TRIPOS>ATOM
      1 N          14.7520   14.9995    2.1331 N.2     1  UNL1       -0.2555
      2 N          14.3284   12.1730    3.0508 N.2     1  UNL1       -0.2908
      3 N          11.6237   11.4711    2.2863 N.3     1  UNL1       -0.3024
      4 N           9.3591    9.8523   -0.2384 N.3     1  UNL1       -0.3071
      5 C          16.7965   15.9787    3.1073 C.3     1  UNL1       -0.0256
      6 H          16.7245   16.7010    2.2983 H       1  UNL1        0.0289
      7 H          17.8068   15.5767    3.1402 H       1  UNL1        0.0289
      8 H          16.6138   16.4935    4.0503 H       1  UNL1        0.0289
      9 C          15.7824   14.8651    2.9473 C.2     1  UNL1        0.0260
     10 C          16.0402   13.7274    3.7184 C.3     1  UNL1        0.0478
     11 H          16.9119   13.8132    4.3520 H       1  UNL1        0.0431
     12 C          15.4207   12.4714    3.7336 C.2     1  UNL1        0.0199
     13 C          16.1150   11.4208    4.5722 C.3     1  UNL1       -0.0260
     14 H          15.4201   10.9489    5.2651 H       1  UNL1        0.0289
     15 H          16.9294   11.8557    5.1435 H       1  UNL1        0.0289
     16 H          16.5281   10.6415    3.9314 H       1  UNL1        0.0289
     17 C          13.8774   10.7907    3.1076 C.3     1  UNL1        0.0523
     18 H          13.5618   10.5320    4.1303 H       1  UNL1        0.0521
     19 H          14.6931   10.1042    2.8369 H       1  UNL1        0.0521
     20 C          12.7234   10.5119    2.1385 C.3     1  UNL1        0.0182
     21 H          13.1018   10.5822    1.1144 H       1  UNL1        0.0444
     22 H          12.3835    9.4773    2.3146 H       1  UNL1        0.0444
     23 C          10.6711   11.3797    1.1692 C.3     1  UNL1        0.0114
     24 H          11.2286   11.3832    0.2313 H       1  UNL1        0.0439
     25 H          10.0440   12.2746    1.2118 H       1  UNL1        0.0439
     26 C           9.7746   10.1305    1.1254 C.3     1  UNL1        0.0111
     27 H          10.3451    9.2617    1.4626 H       1  UNL1        0.0439
     28 H           8.9048   10.2509    1.7978 H       1  UNL1        0.0439
     29 C          10.9248   11.2620    3.5558 C.3     1  UNL1       -0.0127
     30 H          10.6431   10.2103    3.7005 H       1  UNL1        0.0391
     31 H          10.0259   11.8745    3.5841 H       1  UNL1        0.0391
     32 H          11.5543   11.5729    4.3868 H       1  UNL1        0.0391
     33 C          14.6796   16.1239    1.2638 C.ar    1  UNL1        0.0706
     34 C          15.1551   15.9902   -0.0557 C.ar    1  UNL1       -0.0192
     35 C          15.0474   17.0663   -0.9244 C.ar    1  UNL1       -0.0563
     36 H          15.4142   16.9736   -1.9345 H       1  UNL1        0.0621
     37 C          14.4911   18.2632   -0.5161 C.ar    1  UNL1       -0.0611
     38 H          14.4143   19.0902   -1.2066 H       1  UNL1        0.0618
     39 C          14.0529   18.4004    0.7854 C.ar    1  UNL1       -0.0563
     40 H          13.6397   19.3444    1.1069 H       1  UNL1        0.0621
     41 C          14.1452   17.3522    1.6918 C.ar    1  UNL1       -0.0192
     42 C          13.6949   17.5767    3.1180 C.3     1  UNL1       -0.0195
     43 H          13.8909   16.6642    3.6897 H       1  UNL1        0.0344
     44 C          14.4703   18.7339    3.7579 C.3     1  UNL1       -0.0586
     45 H          15.5418   18.6156    3.6162 H       1  UNL1        0.0235
     46 H          14.2651   18.7739    4.8259 H       1  UNL1        0.0235
     47 H          14.1753   19.6851    3.3216 H       1  UNL1        0.0235
     48 C          12.1918   17.8588    3.1821 C.3     1  UNL1       -0.0586
     49 H          11.6408   16.9642    2.9047 H       1  UNL1        0.0235
     50 H          11.9162   18.6688    2.5111 H       1  UNL1        0.0235
     51 H          11.9042   18.1406    4.1934 H       1  UNL1        0.0235
     52 C          15.8287   14.7160   -0.5171 C.3     1  UNL1       -0.0195
     53 H          15.4861   13.8917    0.1249 H       1  UNL1        0.0344
     54 C          15.4883   14.3659   -1.9676 C.3     1  UNL1       -0.0586
     55 H          14.4271   14.5029   -2.1616 H       1  UNL1        0.0235
     56 H          15.7375   13.3251   -2.1604 H       1  UNL1        0.0235
     57 H          16.0502   14.9819   -2.6666 H       1  UNL1        0.0235
     58 C          17.3481   14.8413   -0.3600 C.3     1  UNL1       -0.0586
     59 H          17.6204   14.9560    0.6851 H       1  UNL1        0.0235
     60 H          17.7161   15.7049   -0.9116 H       1  UNL1        0.0235
     61 H          17.8365   13.9493   -0.7463 H       1  UNL1        0.0235
     62 C           8.7124    8.5607   -0.3360 C.3     1  UNL1       -0.0130
     63 H           8.4752    8.3619   -1.3796 H       1  UNL1        0.0391
     64 H           7.7828    8.5017    0.2531 H       1  UNL1        0.0391
     65 H           9.3955    7.7883    0.0151 H       1  UNL1        0.0391
     66 C           8.5191   10.8959   -0.7894 C.3     1  UNL1       -0.0130
     67 H           9.0761   11.8284   -0.8359 H       1  UNL1        0.0391
     68 H           7.6013   11.0549   -0.2003 H       1  UNL1        0.0391
     69 H           8.2382   10.6191   -1.8039 H       1  UNL1        0.0391
@<TRIPOS>BOND
     1    57    54    1
     2    55    54    1
     3    56    54    1
     4    54    52    1
     5    36    35    1
     6    69    66    1
     7    63    62    1
     8    38    37    1
     9    35    37   ar
    10    35    34   ar
    11    60    58    1
    12    67    66    1
    13    66     4    1
    14    66    68    1
    15    61    58    1
    16    52    58    1
    17    52    34    1
    18    52    53    1
    19    37    39   ar
    20    58    59    1
    21    62     4    1
    22    62    65    1
    23    62    64    1
    24     4    26    1
    25    34    33   ar
    26    24    23    1
    27    39    40    1
    28    39    41   ar
    29    21    20    1
    30    26    23    1
    31    26    27    1
    32    26    28    1
    33    23    25    1
    34    23     3    1
    35    33    41   ar
    36    33     1    1
    37    41    42    1
    38     1     9    2
    39    20     3    1
    40    20    22    1
    41    20    17    1
    42     3    29    1
    43     6     5    1
    44    50    48    1
    45    19    17    1
    46    49    48    1
    47     9     5    1
    48     9    10    1
    49     2    17    1
    50     2    12    2
    51     5     7    1
    52     5     8    1
    53    17    18    1
    54    42    48    1
    55    42    43    1
    56    42    44    1
    57    48    51    1
    58    47    44    1
    59    29    31    1
    60    29    30    1
    61    29    32    1
    62    45    44    1
    63    10    12    1
    64    10    11    1
    65    12    13    1
    66    44    46    1
    67    16    13    1
    68    13    15    1
    69    13    14    1
