@<TRIPOS>MOLECULE
1,2
 69 69 0 0 0
SMALL
GASTEIGER

@<TRIPOS>ATOM
      1 N           3.9888   12.5500   15.9941 N.2     1  UNL1       -0.2555
      2 N           2.1105   12.2070   13.6731 N.2     1  UNL1       -0.2908
      3 N           2.3316    9.4300   12.7985 N.3     1  UNL1       -0.3024
      4 N           2.5552    9.7695    9.0804 N.3     1  UNL1       -0.3071
      5 C           4.3301   14.9306   16.5476 C.3     1  UNL1       -0.0256
      6 H           4.6902   14.5595   17.5037 H       1  UNL1        0.0289
      7 H           3.5888   15.7079   16.7210 H       1  UNL1        0.0289
      8 H           5.1652   15.3827   16.0132 H       1  UNL1        0.0289
      9 C           3.7481   13.8146   15.7045 C.2     1  UNL1        0.0260
     10 C           2.9598   14.2458   14.6328 C.3     1  UNL1        0.0478
     11 H           2.9038   15.3208   14.5329 H       1  UNL1        0.0431
     12 C           2.1660   13.5274   13.7303 C.2     1  UNL1        0.0199
     13 C           1.3079   14.3727   12.8144 C.3     1  UNL1       -0.0260
     14 H           1.4485   14.0875   11.7729 H       1  UNL1        0.0289
     15 H           1.5488   15.4262   12.9195 H       1  UNL1        0.0289
     16 H           0.2532   14.2403   13.0569 H       1  UNL1        0.0289
     17 C           1.1497   11.6357   12.7399 C.3     1  UNL1        0.0523
     18 H           1.4186   11.8856   11.7026 H       1  UNL1        0.0521
     19 H           0.1444   12.0453   12.9213 H       1  UNL1        0.0521
     20 C           1.0372   10.1155   12.8781 C.3     1  UNL1        0.0182
     21 H           0.6091    9.8863   13.8580 H       1  UNL1        0.0444
     22 H           0.3320    9.7526   12.1123 H       1  UNL1        0.0444
     23 C           2.9843    9.5757   11.4898 C.3     1  UNL1        0.0114
     24 H           3.9711    9.1178   11.5726 H       1  UNL1        0.0439
     25 H           3.1351   10.6389   11.3014 H       1  UNL1        0.0439
     26 C           2.2568    8.9851   10.2673 C.3     1  UNL1        0.0111
     27 H           2.5302    7.9232   10.1291 H       1  UNL1        0.0439
     28 H           1.1751    9.0321   10.4140 H       1  UNL1        0.0439
     29 C           2.1572    8.0100   13.1047 C.3     1  UNL1       -0.0127
     30 H           1.7632    7.8851   14.1123 H       1  UNL1        0.0391
     31 H           3.1232    7.5111   13.0455 H       1  UNL1        0.0391
     32 H           1.4640    7.5180   12.4094 H       1  UNL1        0.0391
     33 C           4.6700   12.2129   17.1965 C.ar    1  UNL1        0.0706
     34 C           6.0743   12.2238   17.2748 C.ar    1  UNL1       -0.0192
     35 C           6.6876   11.8225   18.4542 C.ar    1  UNL1       -0.0563
     36 H           7.7653   11.8209   18.5171 H       1  UNL1        0.0621
     37 C           5.9460   11.4397   19.5531 C.ar    1  UNL1       -0.0611
     38 H           6.4400   11.1348   20.4641 H       1  UNL1        0.0618
     39 C           4.5661   11.4715   19.4877 C.ar    1  UNL1       -0.0563
     40 H           3.9927   11.2048   20.3615 H       1  UNL1        0.0621
     41 C           3.9101   11.8537   18.3272 C.ar    1  UNL1       -0.0192
     42 C           2.3991   11.9388   18.3059 C.3     1  UNL1       -0.0195
     43 H           2.0658   11.8468   17.2620 H       1  UNL1        0.0344
     44 C           1.9439   13.3037   18.8344 C.3     1  UNL1       -0.0586
     45 H           2.3343   13.4710   19.8368 H       1  UNL1        0.0235
     46 H           0.8573   13.3446   18.8749 H       1  UNL1        0.0235
     47 H           2.2928   14.1039   18.1886 H       1  UNL1        0.0235
     48 C           1.7370   10.8251   19.1197 C.3     1  UNL1       -0.0586
     49 H           1.8142   11.0167   20.1880 H       1  UNL1        0.0235
     50 H           2.1971    9.8650   18.9009 H       1  UNL1        0.0235
     51 H           0.6804   10.7653   18.8673 H       1  UNL1        0.0235
     52 C           6.9357   12.6940   16.1240 C.3     1  UNL1       -0.0195
     53 H           6.2773   13.0260   15.3159 H       1  UNL1        0.0344
     54 C           7.8092   11.5597   15.5823 C.3     1  UNL1       -0.0586
     55 H           8.3736   11.0838   16.3805 H       1  UNL1        0.0235
     56 H           8.5150   11.9457   14.8489 H       1  UNL1        0.0235
     57 H           7.1837   10.8161   15.0958 H       1  UNL1        0.0235
     58 C           7.8189   13.8714   16.5535 C.3     1  UNL1       -0.0586
     59 H           7.2346   14.6409   17.0522 H       1  UNL1        0.0235
     60 H           8.2999   14.3128   15.6828 H       1  UNL1        0.0235
     61 H           8.5970   13.5418   17.2377 H       1  UNL1        0.0235
     62 C           3.9410    9.6344    8.6732 C.3     1  UNL1       -0.0130
     63 H           4.5998    9.9716    9.4692 H       1  UNL1        0.0391
     64 H           4.1116   10.2594    7.7984 H       1  UNL1        0.0391
     65 H           4.2022    8.5959    8.4167 H       1  UNL1        0.0391
     66 C           1.6649    9.4318    7.9881 C.3     1  UNL1       -0.0130
     67 H           1.7581    8.3818    7.6683 H       1  UNL1        0.0391
     68 H           1.8904   10.0726    7.1373 H       1  UNL1        0.0391
     69 H           0.6341    9.6119    8.2919 H       1  UNL1        0.0391
@<TRIPOS>BOND
     1    68    66    1
     2    67    66    1
     3    64    62    1
     4    66    69    1
     5    66     4    1
     6    65    62    1
     7    62     4    1
     8    62    63    1
     9     4    26    1
    10    27    26    1
    11    26    28    1
    12    26    23    1
    13    25    23    1
    14    23    24    1
    15    23     3    1
    16    18    17    1
    17    14    13    1
    18    22    20    1
    19    32    29    1
    20    17    20    1
    21    17    19    1
    22    17     2    1
    23     3    20    1
    24     3    29    1
    25    13    15    1
    26    13    16    1
    27    13    12    1
    28    20    21    1
    29    31    29    1
    30    29    30    1
    31     2    12    2
    32    12    10    1
    33    11    10    1
    34    10     9    1
    35    56    54    1
    36    57    54    1
    37    53    52    1
    38    54    52    1
    39    54    55    1
    40    60    58    1
    41     9     1    2
    42     9     5    1
    43     1    33    1
    44     8     5    1
    45    52    58    1
    46    52    34    1
    47     5     7    1
    48     5     6    1
    49    58    59    1
    50    58    61    1
    51    33    34   ar
    52    33    41   ar
    53    43    42    1
    54    34    35   ar
    55    47    44    1
    56    42    41    1
    57    42    44    1
    58    42    48    1
    59    41    39   ar
    60    35    36    1
    61    35    37   ar
    62    44    46    1
    63    44    45    1
    64    51    48    1
    65    50    48    1
    66    48    49    1
    67    39    37   ar
    68    39    40    1
    69    37    38    1
