@<TRIPOS>MOLECULE
2,3
 29 30 0 0 0
SMALL
GASTEIGER

@<TRIPOS>ATOM
      1 SI         10.6753   15.4421   -1.5733 Si      1  UNL1        0.0000
      2 N          13.2177   12.8891    0.0705 N.ar    1  UNL1        0.0000
      3 N          12.3923   13.9520    0.0629 N.ar    1  UNL1        0.0000
      4 N          13.1435   12.2356   -1.0561 N.ar    1  UNL1        0.0000
      5 C          12.2513   12.8596   -1.8382 C.ar    1  UNL1        0.0000
      6 C          11.9479   12.3727   -3.1720 C.ar    1  UNL1        0.0000
      7 C          12.9319   11.6999   -3.8947 C.ar    1  UNL1        0.0000
      8 H          13.9001   11.5550   -3.4408 H       1  UNL1        0.0000
      9 C          12.6683   11.2309   -5.1666 C.ar    1  UNL1        0.0000
     10 H          13.4392   10.7147   -5.7209 H       1  UNL1        0.0000
     11 C          11.4191   11.4215   -5.7350 C.ar    1  UNL1        0.0000
     12 H          11.2141   11.0574   -6.7314 H       1  UNL1        0.0000
     13 C          10.4313   12.0748   -5.0169 C.ar    1  UNL1        0.0000
     14 H           9.4517   12.2154   -5.4520 H       1  UNL1        0.0000
     15 C          10.6906   12.5452   -3.7434 C.ar    1  UNL1        0.0000
     16 H           9.9152   13.0361   -3.1773 H       1  UNL1        0.0000
     17 C          11.7576   13.9714   -1.1244 C.ar    1  UNL1        0.0000
     18 C          10.9955   16.8068   -0.2797 C.3     1  UNL1        0.0000
     19 H          11.0794   17.7835   -0.7466 H       1  UNL1        0.0000
     20 H          11.9221   16.6175    0.2563 H       1  UNL1        0.0000
     21 H          10.1944   16.8654    0.4504 H       1  UNL1        0.0000
     22 C          11.1834   16.0562   -3.3066 C.3     1  UNL1        0.0000
     23 H          10.5217   16.8455   -3.6500 H       1  UNL1        0.0000
     24 H          11.1575   15.2587   -4.0428 H       1  UNL1        0.0000
     25 H          12.1933   16.4559   -3.2915 H       1  UNL1        0.0000
     26 C           8.8042   15.0255   -1.5395 C.3     1  UNL1        0.0000
     27 H           8.2258   15.9384   -1.4311 H       1  UNL1        0.0000
     28 H           8.5455   14.3751   -0.7085 H       1  UNL1        0.0000
     29 H           8.4668   14.5423   -2.4511 H       1  UNL1        0.0000
@<TRIPOS>BOND
     1    12    11    1
     2    11     9   ar
     3    11    13   ar
     4    10     9    1
     5    14    13    1
     6     9     7   ar
     7    13    15   ar
     8    24    22    1
     9     7     8    1
    10     7     6   ar
    11    15    16    1
    12    15     6   ar
    13    23    22    1
    14    22    25    1
    15    22     1    1
    16     6     5    1
    17    29    26    1
    18     5    17   ar
    19     5     4   ar
    20     1    26    1
    21     1    17    1
    22     1    18    1
    23    26    27    1
    24    26    28    1
    25    17     3   ar
    26     4     2   ar
    27    19    18    1
    28    18    20    1
    29    18    21    1
    30     3     2   ar
