@<TRIPOS>MOLECULE
2,3
 33 34 0 0 0
SMALL
GASTEIGER

@<TRIPOS>ATOM
      1 SI          4.8213    7.4355   17.5701 Si      1  UNL1        0.0000
      2 N           2.0678    9.7708   15.8572 N.ar    1  UNL1        0.0000
      3 N           3.3289    9.3573   16.1448 N.ar    1  UNL1        0.0000
      4 C           1.2149    8.8913   16.3971 C.ar    1  UNL1        0.0000
      5 H           0.1493    9.0139   16.3037 H       1  UNL1        0.0000
      6 C           1.9168    7.8880   17.0518 C.ar    1  UNL1        0.0000
      7 C           1.3342    6.6806   17.7135 C.3     1  UNL1        0.0000
      8 H           0.6441    6.9778   18.5078 H       1  UNL1        0.0000
      9 H           2.1408    6.0935   18.1574 H       1  UNL1        0.0000
     10 C           0.6068    5.8559   16.6856 C.ar    1  UNL1        0.0000
     11 C          -0.7537    5.6033   16.7860 C.ar    1  UNL1        0.0000
     12 H          -1.3055    5.9779   17.6372 H       1  UNL1        0.0000
     13 C          -1.4111    4.8760   15.8081 C.ar    1  UNL1        0.0000
     14 H          -2.4708    4.6852   15.9015 H       1  UNL1        0.0000
     15 C          -0.7149    4.3962   14.7130 C.ar    1  UNL1        0.0000
     16 H          -1.2276    3.8302   13.9489 H       1  UNL1        0.0000
     17 C           0.6436    4.6451   14.6026 C.ar    1  UNL1        0.0000
     18 H           1.1936    4.2735   13.7499 H       1  UNL1        0.0000
     19 C           1.2980    5.3687   15.5813 C.ar    1  UNL1        0.0000
     20 H           2.3565    5.5671   15.4946 H       1  UNL1        0.0000
     21 C           3.2653    8.2217   16.8671 C.ar    1  UNL1        0.0000
     22 C           6.3152    8.5175   17.1018 C.3     1  UNL1        0.0000
     23 H           5.9835    9.5263   16.8693 H       1  UNL1        0.0000
     24 H           6.8446    8.1278   16.2391 H       1  UNL1        0.0000
     25 H           7.0279    8.5841   17.9176 H       1  UNL1        0.0000
     26 C           5.0691    5.6670   16.8763 C.3     1  UNL1        0.0000
     27 H           4.2766    4.9900   17.1811 H       1  UNL1        0.0000
     28 H           6.0068    5.2472   17.2283 H       1  UNL1        0.0000
     29 H           5.1004    5.6676   15.7899 H       1  UNL1        0.0000
     30 C           4.6863    7.3685   19.4758 C.3     1  UNL1        0.0000
     31 H           4.6497    8.3729   19.8871 H       1  UNL1        0.0000
     32 H           5.5455    6.8660   19.9095 H       1  UNL1        0.0000
     33 H           3.7974    6.8439   19.8117 H       1  UNL1        0.0000
@<TRIPOS>BOND
     1    18    17    1
     2    16    15    1
     3    17    15   ar
     4    17    19   ar
     5    15    13   ar
     6    20    19    1
     7    19    10   ar
     8    29    26    1
     9    13    14    1
    10    13    11   ar
    11     2     3   ar
    12     2     4   ar
    13     3    21   ar
    14    24    22    1
    15     5     4    1
    16     4     6   ar
    17    10    11   ar
    18    10     7    1
    19    11    12    1
    20    21     6   ar
    21    21     1    1
    22    23    22    1
    23    26    27    1
    24    26    28    1
    25    26     1    1
    26     6     7    1
    27    22     1    1
    28    22    25    1
    29     1    30    1
    30     7     9    1
    31     7     8    1
    32    30    33    1
    33    30    31    1
    34    30    32    1
