@<TRIPOS>MOLECULE
1,2
 48 48 0 0 0
SMALL
GASTEIGER

@<TRIPOS>ATOM
      1 N          -2.1152    7.2720    3.7894 N.pl3   1  UNL1        0.0000
      2 N          -0.0033    8.5451    4.6018 N.3     1  UNL1        0.0000
      3 SI         -1.1646    8.5332    3.1861 Si      1  UNL1        0.0000
      4 C          -2.9659    6.4712    2.9960 C.ar    1  UNL1        0.0000
      5 C          -2.4945    5.2668    2.4375 C.ar    1  UNL1        0.0000
      6 C          -3.3242    4.5120    1.6230 C.ar    1  UNL1        0.0000
      7 H          -2.9533    3.5897    1.2024 H       1  UNL1        0.0000
      8 C          -4.6124    4.9153    1.3345 C.ar    1  UNL1        0.0000
      9 H          -5.2419    4.3223    0.6879 H       1  UNL1        0.0000
     10 C          -5.0882    6.0801    1.8997 C.ar    1  UNL1        0.0000
     11 H          -6.1011    6.3930    1.6945 H       1  UNL1        0.0000
     12 C          -4.2909    6.8549    2.7286 C.ar    1  UNL1        0.0000
     13 C          -4.8847    8.0886    3.3625 C.3     1  UNL1        0.0000
     14 H          -4.1206    8.4986    4.0330 H       1  UNL1        0.0000
     15 C          -5.2350    9.1415    2.3098 C.3     1  UNL1        0.0000
     16 H          -4.3709    9.3578    1.6876 H       1  UNL1        0.0000
     17 H          -5.5657   10.0637    2.7848 H       1  UNL1        0.0000
     18 H          -6.0348    8.7842    1.6657 H       1  UNL1        0.0000
     19 C          -6.1270    7.7226    4.1817 C.3     1  UNL1        0.0000
     20 H          -6.9549    7.4632    3.5264 H       1  UNL1        0.0000
     21 H          -6.4416    8.5610    4.8021 H       1  UNL1        0.0000
     22 H          -5.9207    6.8617    4.8146 H       1  UNL1        0.0000
     23 C          -1.1060    4.7534    2.7315 C.3     1  UNL1        0.0000
     24 H          -0.5951    5.5007    3.3543 H       1  UNL1        0.0000
     25 C          -1.1790    3.4444    3.5251 C.3     1  UNL1        0.0000
     26 H          -1.7817    3.5793    4.4215 H       1  UNL1        0.0000
     27 H          -0.1802    3.1365    3.8247 H       1  UNL1        0.0000
     28 H          -1.6265    2.6554    2.9247 H       1  UNL1        0.0000
     29 C          -0.2944    4.5443    1.4496 C.3     1  UNL1        0.0000
     30 H           0.7415    4.3244    1.6994 H       1  UNL1        0.0000
     31 H          -0.3262    5.4302    0.8204 H       1  UNL1        0.0000
     32 H          -0.6875    3.7089    0.8754 H       1  UNL1        0.0000
     33 C          -0.2352    8.2927    1.5207 C.3     1  UNL1        0.0000
     34 H           0.4808    7.4786    1.5447 H       1  UNL1        0.0000
     35 H           0.2938    9.1916    1.2161 H       1  UNL1        0.0000
     36 H          -0.9569    8.0646    0.7420 H       1  UNL1        0.0000
     37 C          -1.8755   10.3105    2.9629 C.3     1  UNL1        0.0000
     38 H          -2.4077   10.3688    2.0196 H       1  UNL1        0.0000
     39 H          -1.0859   11.0549    2.9230 H       1  UNL1        0.0000
     40 H          -2.5709   10.6079    3.7397 H       1  UNL1        0.0000
     41 C           1.2513    7.8646    4.2719 C.3     1  UNL1        0.0000
     42 H           1.8562    8.4737    3.5855 H       1  UNL1        0.0000
     43 H           1.0584    6.9027    3.7979 H       1  UNL1        0.0000
     44 H           1.8341    7.6890    5.1780 H       1  UNL1        0.0000
     45 C           0.3517    9.8730    5.0785 C.3     1  UNL1        0.0000
     46 H           0.9759    9.8083    5.9735 H       1  UNL1        0.0000
     47 H          -0.5412   10.4471    5.3098 H       1  UNL1        0.0000
     48 H           0.9244   10.4287    4.3219 H       1  UNL1        0.0000
@<TRIPOS>BOND
     1     9     8    1
     2    36    33    1
     3    31    29    1
     4    32    29    1
     5     7     6    1
     6    35    33    1
     7     8     6   ar
     8     8    10   ar
     9    29    30    1
    10    29    23    1
    11    33    34    1
    12    33     3    1
    13     6     5   ar
    14    18    15    1
    15    16    15    1
    16    11    10    1
    17    10    12   ar
    18    38    37    1
    19    15    17    1
    20    15    13    1
    21     5    23    1
    22     5     4   ar
    23    12     4   ar
    24    12    13    1
    25    23    24    1
    26    23    25    1
    27    39    37    1
    28    28    25    1
    29    37     3    1
    30    37    40    1
    31     4     1    1
    32     3     1    1
    33     3     2    1
    34    13    14    1
    35    13    19    1
    36    25    27    1
    37    25    26    1
    38    20    19    1
    39    42    41    1
    40    43    41    1
    41    19    21    1
    42    19    22    1
    43    41     2    1
    44    41    44    1
    45    48    45    1
    46     2    45    1
    47    45    47    1
    48    45    46    1
