@<TRIPOS>MOLECULE
1,2
 48 48 0 0 0
SMALL
GASTEIGER

@<TRIPOS>ATOM
      1 N          -0.7109    7.2719    7.7556 N.pl3   1  UNL1        0.0000
      2 N          -2.8228    8.5451    6.9432 N.3     1  UNL1        0.0000
      3 SI         -1.6615    8.5331    8.3589 Si      1  UNL1        0.0000
      4 C           0.1398    6.4711    8.5489 C.ar    1  UNL1        0.0000
      5 C          -0.3317    5.2668    9.1076 C.ar    1  UNL1        0.0000
      6 C           0.4980    4.5120    9.9221 C.ar    1  UNL1        0.0000
      7 H           0.1271    3.5897   10.3428 H       1  UNL1        0.0000
      8 C           1.7862    4.9154   10.2107 C.ar    1  UNL1        0.0000
      9 H           2.4157    4.3224   10.8574 H       1  UNL1        0.0000
     10 C           2.2621    6.0801    9.6455 C.ar    1  UNL1        0.0000
     11 H           3.2749    6.3931    9.8506 H       1  UNL1        0.0000
     12 C           1.4648    6.8549    8.8165 C.ar    1  UNL1        0.0000
     13 C           2.0586    8.0886    8.1826 C.3     1  UNL1        0.0000
     14 H           1.2945    8.4986    7.5121 H       1  UNL1        0.0000
     15 C           2.4089    9.1416    9.2352 C.3     1  UNL1        0.0000
     16 H           1.5448    9.3579    9.8575 H       1  UNL1        0.0000
     17 H           2.7395   10.0637    8.7602 H       1  UNL1        0.0000
     18 H           3.2087    8.7843    9.8794 H       1  UNL1        0.0000
     19 C           3.3009    7.7225    7.3635 C.3     1  UNL1        0.0000
     20 H           4.1288    7.4631    8.0187 H       1  UNL1        0.0000
     21 H           3.6155    8.5609    6.7430 H       1  UNL1        0.0000
     22 H           3.0945    6.8616    6.7305 H       1  UNL1        0.0000
     23 C          -1.7202    4.7535    8.8135 C.3     1  UNL1        0.0000
     24 H          -2.2311    5.5007    8.1906 H       1  UNL1        0.0000
     25 C          -1.6471    3.4444    8.0200 C.3     1  UNL1        0.0000
     26 H          -1.0444    3.5794    7.1236 H       1  UNL1        0.0000
     27 H          -2.6459    3.1365    7.7203 H       1  UNL1        0.0000
     28 H          -1.1996    2.6555    8.6204 H       1  UNL1        0.0000
     29 C          -2.5318    4.5443   10.0955 C.3     1  UNL1        0.0000
     30 H          -3.5677    4.3243    9.8457 H       1  UNL1        0.0000
     31 H          -2.5000    5.4302   10.7247 H       1  UNL1        0.0000
     32 H          -2.1387    3.7089   10.6697 H       1  UNL1        0.0000
     33 C          -2.5909    8.2926   10.0244 C.3     1  UNL1        0.0000
     34 H          -3.3069    7.4786   10.0004 H       1  UNL1        0.0000
     35 H          -3.1198    9.1915   10.3290 H       1  UNL1        0.0000
     36 H          -1.8692    8.0646   10.8030 H       1  UNL1        0.0000
     37 C          -0.9507   10.3105    8.5823 C.3     1  UNL1        0.0000
     38 H          -0.4185   10.3687    9.5255 H       1  UNL1        0.0000
     39 H          -1.7402   11.0549    8.6222 H       1  UNL1        0.0000
     40 H          -0.2552   10.6079    7.8054 H       1  UNL1        0.0000
     41 C          -4.0775    7.8646    7.2732 C.3     1  UNL1        0.0000
     42 H          -4.6823    8.4736    7.9596 H       1  UNL1        0.0000
     43 H          -3.8845    6.9027    7.7471 H       1  UNL1        0.0000
     44 H          -4.6602    7.6891    6.3670 H       1  UNL1        0.0000
     45 C          -3.1778    9.8730    6.4667 C.3     1  UNL1        0.0000
     46 H          -3.8020    9.8083    5.5716 H       1  UNL1        0.0000
     47 H          -2.2849   10.4471    6.2353 H       1  UNL1        0.0000
     48 H          -3.7505   10.4287    7.2233 H       1  UNL1        0.0000
@<TRIPOS>BOND
     1    46    45    1
     2    47    45    1
     3    44    41    1
     4    45     2    1
     5    45    48    1
     6    22    19    1
     7    21    19    1
     8     2    41    1
     9     2     3    1
    10    26    25    1
    11    41    43    1
    12    41    42    1
    13    19    20    1
    14    19    13    1
    15    14    13    1
    16    27    25    1
    17     1     3    1
    18     1     4    1
    19    40    37    1
    20    25    28    1
    21    25    23    1
    22    13    12    1
    23    13    15    1
    24    24    23    1
    25     3    37    1
    26     3    33    1
    27     4    12   ar
    28     4     5   ar
    29    37    39    1
    30    37    38    1
    31    17    15    1
    32    23     5    1
    33    23    29    1
    34    12    10   ar
    35     5     6   ar
    36    15    16    1
    37    15    18    1
    38    10    11    1
    39    10     8   ar
    40    30    29    1
    41     6     8   ar
    42     6     7    1
    43    34    33    1
    44    33    35    1
    45    33    36    1
    46    29    32    1
    47    29    31    1
    48     8     9    1
