@<TRIPOS>MOLECULE
5,13
 48 49 0 0 0
SMALL
GASTEIGER

@<TRIPOS>ATOM
      1 C           4.1941   13.0077    6.8237 C.3     1  UNL1       -0.0379
      2 H           4.1465   13.2298    7.8879 H       1  UNL1        0.0278
      3 H           3.9776   13.9114    6.2542 H       1  UNL1        0.0278
      4 H           5.2166   12.7054    6.5902 H       1  UNL1        0.0278
      5 N           2.9064   12.9053    4.2858 N.pl3   1  UNL1       -0.2193
      6 C           4.5008   13.9261    2.8040 C.2     1  UNL1       -0.0383
      7 H           5.3930   13.7006    2.2376 H       1  UNL1        0.0610
      8 C           3.9870   12.8506    3.5354 C.2     1  UNL1        0.0264
      9 C           1.5371    9.8097    5.8181 C.ar    1  UNL1       -0.0570
     10 H           0.8844    8.9884    5.5580 H       1  UNL1        0.0621
     11 C           1.8089   10.7797    4.8628 C.ar    1  UNL1       -0.0272
     12 C           2.6529   11.8481    5.1920 C.ar    1  UNL1        0.0591
     13 N           3.0230   15.7559    3.3357 N.pl3   1  UNL1       -0.2372
     14 C           3.2880   17.9032    4.4415 C.ar    1  UNL1       -0.0276
     15 C           2.1967   17.7970    2.2742 C.ar    1  UNL1       -0.0276
     16 C           2.9351   10.9251    7.4008 C.ar    1  UNL1       -0.0570
     17 H           3.3787   10.9797    8.3851 H       1  UNL1        0.0621
     18 C           3.0878   19.2756    4.4560 C.ar    1  UNL1       -0.0570
     19 H           3.4313   19.8523    5.3037 H       1  UNL1        0.0621
     20 C           2.8455   17.1568    3.3398 C.ar    1  UNL1        0.0546
     21 C           1.2209   10.6382    3.4873 C.3     1  UNL1       -0.0379
     22 H           1.6887    9.8012    2.9658 H       1  UNL1        0.0278
     23 H           1.3695   11.5412    2.8980 H       1  UNL1        0.0278
     24 H           0.1543   10.4278    3.5502 H       1  UNL1        0.0278
     25 C           5.0971   16.2245    2.1291 C.3     1  UNL1       -0.0359
     26 H           4.5967   16.8567    1.3985 H       1  UNL1        0.0255
     27 H           5.9025   15.6883    1.6354 H       1  UNL1        0.0255
     28 H           5.5309   16.8842    2.8808 H       1  UNL1        0.0255
     29 C           2.0110   19.1702    2.3219 C.ar    1  UNL1       -0.0570
     30 H           1.5151   19.6664    1.4984 H       1  UNL1        0.0621
     31 C           4.7749   11.5611    3.4831 C.3     1  UNL1       -0.0248
     32 H           5.1733   11.3248    4.4688 H       1  UNL1        0.0290
     33 H           5.5991   11.6255    2.7787 H       1  UNL1        0.0290
     34 H           4.1231   10.7399    3.1905 H       1  UNL1        0.0290
     35 C           4.1231   15.2701    2.7880 C.3     1  UNL1        0.0968
     36 C           3.2332   11.9077    6.4704 C.ar    1  UNL1       -0.0272
     37 C           3.9431   17.2039    5.5964 C.3     1  UNL1       -0.0379
     38 H           4.2193   17.9148    6.3719 H       1  UNL1        0.0278
     39 H           4.8389   16.6736    5.2736 H       1  UNL1        0.0278
     40 H           3.2589   16.4623    6.0199 H       1  UNL1        0.0278
     41 C           2.0877    9.8790    7.0832 C.ar    1  UNL1       -0.0611
     42 H           1.8632    9.1194    7.8172 H       1  UNL1        0.0618
     43 C           1.6934   16.9883    1.1157 C.3     1  UNL1       -0.0379
     44 H           2.5149   16.5203    0.5738 H       1  UNL1        0.0278
     45 H           1.1393   17.6138    0.4184 H       1  UNL1        0.0278
     46 H           1.0447   16.1854    1.4759 H       1  UNL1        0.0278
     47 C           2.4585   19.9120    3.4008 C.ar    1  UNL1       -0.0611
     48 H           2.3162   20.9826    3.4205 H       1  UNL1        0.0618
@<TRIPOS>BOND
     1    45    43    1
     2    44    43    1
     3    43    46    1
     4    43    15    1
     5    26    25    1
     6    30    29    1
     7    27    25    1
     8    25    35    1
     9    25    28    1
    10     7     6    1
    11    15    29   ar
    12    15    20   ar
    13    29    47   ar
    14    33    31    1
    15    35     6    1
    16    35    13    1
    17     6     8    2
    18    23    21    1
    19    22    21    1
    20    34    31    1
    21    13    20    1
    22    20    14   ar
    23    47    48    1
    24    47    18   ar
    25    31     8    1
    26    31    32    1
    27    21    24    1
    28    21    11    1
    29     8     5    1
    30     5    12    1
    31    14    18   ar
    32    14    37    1
    33    18    19    1
    34    11    12   ar
    35    11     9   ar
    36    12    36   ar
    37    39    37    1
    38    10     9    1
    39    37    40    1
    40    37    38    1
    41     9    41   ar
    42     3     1    1
    43    36     1    1
    44    36    16   ar
    45     4     1    1
    46     1     2    1
    47    41    16   ar
    48    41    42    1
    49    16    17    1
