@<TRIPOS>MOLECULE
2,3
 62 63 0 0 0
SMALL
GASTEIGER

@<TRIPOS>ATOM
      1 SI          1.9475   13.9356   11.6016 Si      1  UNL1        0.0000
      2 N           4.0156   11.7692   12.2745 N.pl3   1  UNL1        0.0000
      3 N           2.5352   14.1160   13.3218 N.3     1  UNL1        0.0000
      4 C           3.6959    9.3506   11.9287 C.ar    1  UNL1        0.0000
      5 C           4.9612   10.1676   13.8325 C.ar    1  UNL1        0.0000
      6 C           4.2441   10.4372   12.6455 C.ar    1  UNL1        0.0000
      7 C           3.4003   13.2959   10.5955 C.3     1  UNL1        0.0000
      8 H           3.6134   13.7525    9.6380 H       1  UNL1        0.0000
      9 C           5.0950   11.5583   10.0368 C.ar    1  UNL1        0.0000
     10 C           4.1287   12.1900   10.9690 C.3     1  UNL1        0.0000
     11 C           3.9762    8.0573   12.3458 C.ar    1  UNL1        0.0000
     12 H           3.5724    7.2280   11.7858 H       1  UNL1        0.0000
     13 C           6.2344   10.9089   10.5117 C.ar    1  UNL1        0.0000
     14 H           6.4271   10.8561   11.5735 H       1  UNL1        0.0000
     15 C           4.8817   11.6129    8.6588 C.ar    1  UNL1        0.0000
     16 H           3.9876   12.0798    8.2732 H       1  UNL1        0.0000
     17 C           5.2053    8.8600   14.2178 C.ar    1  UNL1        0.0000
     18 H           5.7682    8.6707   15.1188 H       1  UNL1        0.0000
     19 C           1.3402    9.0190   11.2106 C.3     1  UNL1        0.0000
     20 H           1.3548    7.9425   11.3609 H       1  UNL1        0.0000
     21 H           0.6022    9.2487   10.4452 H       1  UNL1        0.0000
     22 H           1.0297    9.4820   12.1454 H       1  UNL1        0.0000
     23 C           2.7228    9.5274   10.7829 C.3     1  UNL1        0.0000
     24 H           2.6277   10.5901   10.5470 H       1  UNL1        0.0000
     25 C           2.1048   13.1007   14.2850 C.3     1  UNL1        0.0000
     26 H           2.6808   13.2127   15.2128 H       1  UNL1        0.0000
     27 H           2.2623   12.0983   13.8788 H       1  UNL1        0.0000
     28 H           1.0404   13.2140   14.5312 H       1  UNL1        0.0000
     29 C           5.4496   11.2935   14.7134 C.3     1  UNL1        0.0000
     30 H           5.1536   12.2489   14.2304 H       1  UNL1        0.0000
     31 C           3.1779    8.7963    9.5181 C.3     1  UNL1        0.0000
     32 H           4.1974    9.0685    9.2600 H       1  UNL1        0.0000
     33 H           2.5286    9.0565    8.6850 H       1  UNL1        0.0000
     34 H           3.1361    7.7188    9.6550 H       1  UNL1        0.0000
     35 C           6.9250   10.4203    8.2640 C.ar    1  UNL1        0.0000
     36 H           7.6358    9.9841    7.5782 H       1  UNL1        0.0000
     37 C           1.3291   15.6033   10.9181 C.3     1  UNL1        0.0000
     38 H           0.5412   16.0305   11.5290 H       1  UNL1        0.0000
     39 H           0.9257   15.4645    9.9212 H       1  UNL1        0.0000
     40 H           2.1381   16.3229   10.8494 H       1  UNL1        0.0000
     41 C           0.4617   12.7241   11.6390 C.3     1  UNL1        0.0000
     42 H           0.7370   11.7370   11.9916 H       1  UNL1        0.0000
     43 H           0.0586   12.6084   10.6393 H       1  UNL1        0.0000
     44 H          -0.3418   13.0939   12.2685 H       1  UNL1        0.0000
     45 C           2.2945   15.4404   13.9050 C.3     1  UNL1        0.0000
     46 H           1.2223   15.6151   14.0554 H       1  UNL1        0.0000
     47 H           2.6963   16.2108   13.2477 H       1  UNL1        0.0000
     48 H           2.7967   15.5183   14.8735 H       1  UNL1        0.0000
     49 C           4.7446    7.7990   13.4629 C.ar    1  UNL1        0.0000
     50 H           4.9585    6.7831   13.7571 H       1  UNL1        0.0000
     51 C           7.1400   10.3486    9.6299 C.ar    1  UNL1        0.0000
     52 H           8.0214    9.8578   10.0141 H       1  UNL1        0.0000
     53 C           5.7906   11.0521    7.7819 C.ar    1  UNL1        0.0000
     54 H           5.6107   11.1046    6.7183 H       1  UNL1        0.0000
     55 C           6.9732   11.3167   14.8589 C.3     1  UNL1        0.0000
     56 H           7.2685   12.2000   15.4240 H       1  UNL1        0.0000
     57 H           7.4531   11.3622   13.8828 H       1  UNL1        0.0000
     58 H           7.3284   10.4317   15.3824 H       1  UNL1        0.0000
     59 C           4.7799   11.2485   16.0920 C.3     1  UNL1        0.0000
     60 H           5.1927   10.4397   16.6906 H       1  UNL1        0.0000
     61 H           3.7069   11.0865   15.9970 H       1  UNL1        0.0000
     62 H           4.9541   12.1884   16.6134 H       1  UNL1        0.0000
@<TRIPOS>BOND
     1    54    53    1
     2    36    35    1
     3    53    35   ar
     4    53    15   ar
     5    35    51   ar
     6    16    15    1
     7    15     9   ar
     8    33    31    1
     9    32    31    1
    10    31    34    1
    11    31    23    1
    12    51    52    1
    13    51    13   ar
    14     8     7    1
    15    39    37    1
    16     9    13   ar
    17     9    10    1
    18    21    19    1
    19    13    14    1
    20    24    23    1
    21     7    10    1
    22     7     1    1
    23    43    41    1
    24    23    19    1
    25    23     4    1
    26    40    37    1
    27    37    38    1
    28    37     1    1
    29    10     2    1
    30    19    20    1
    31    19    22    1
    32     1    41    1
    33     1     3    1
    34    41    42    1
    35    41    44    1
    36    12    11    1
    37     4    11   ar
    38     4     6   ar
    39     2     6    1
    40    11    49   ar
    41     6     5   ar
    42    47    45    1
    43     3    45    1
    44     3    25    1
    45    49    50    1
    46    49    17   ar
    47     5    17   ar
    48     5    29    1
    49    27    25    1
    50    57    55    1
    51    45    46    1
    52    45    48    1
    53    17    18    1
    54    30    29    1
    55    25    28    1
    56    25    26    1
    57    29    55    1
    58    29    59    1
    59    55    58    1
    60    55    56    1
    61    61    59    1
    62    59    62    1
    63    59    60    1
