@<TRIPOS>MOLECULE
5,14
 43 43 0 0 0
SMALL
GASTEIGER

@<TRIPOS>ATOM
      1 SI          4.7538   -0.1762    7.5099 Si      1  UNL1        0.0000
      2 C           5.3741   -1.9830    7.6948 C.3     1  UNL1        0.0000
      3 C           5.7713    0.6067    6.0854 C.3     1  UNL1        0.0000
      4 C           2.9268   -0.1637    6.9321 C.3     1  UNL1        0.0000
      5 N           4.8045    0.5764    9.0670 N.3     1  UNL1        0.0000
      6 C           5.6591    1.4659    9.5368 C.3     1  UNL1        0.0000
      7 C           6.7879    1.9912    8.7279 C.ar    1  UNL1        0.0000
      8 C           6.6623    3.1056    7.9114 C.ar    1  UNL1        0.0000
      9 C           7.7550    3.5786    7.2058 C.ar    1  UNL1        0.0000
     10 C           8.9903    2.9529    7.2982 C.ar    1  UNL1        0.0000
     11 C           9.1089    1.8358    8.1190 C.ar    1  UNL1        0.0000
     12 C           8.0231    1.3597    8.8276 C.ar    1  UNL1        0.0000
     13 C          10.1776    3.4547    6.5331 C.3     1  UNL1        0.0000
     14 N           5.4992    1.8293   10.7836 N.3     1  UNL1        0.0000
     15 SI          6.3832    2.9492   11.7403 Si      1  UNL1        0.0000
     16 C           7.0880    4.4951   10.8510 C.3     1  UNL1        0.0000
     17 C           7.8587    2.0744   12.6019 C.3     1  UNL1        0.0000
     18 C           5.1275    3.5555   13.0473 C.3     1  UNL1        0.0000
     19 H           4.9191   -2.4610    8.5588 H       1  UNL1        0.0000
     20 H           6.4526   -2.0240    7.8223 H       1  UNL1        0.0000
     21 H           5.1280   -2.5729    6.8178 H       1  UNL1        0.0000
     22 H           5.4805    1.6348    5.8963 H       1  UNL1        0.0000
     23 H           5.6095    0.0479    5.1686 H       1  UNL1        0.0000
     24 H           6.8372    0.6014    6.2880 H       1  UNL1        0.0000
     25 H           2.3439   -0.9082    7.4633 H       1  UNL1        0.0000
     26 H           2.8566   -0.3900    5.8728 H       1  UNL1        0.0000
     27 H           2.4581    0.8024    7.0963 H       1  UNL1        0.0000
     28 H           5.7082    3.6036    7.8300 H       1  UNL1        0.0000
     29 H           7.6452    4.4485    6.5737 H       1  UNL1        0.0000
     30 H          10.0650    1.3379    8.2001 H       1  UNL1        0.0000
     31 H           8.1188    0.4906    9.4636 H       1  UNL1        0.0000
     32 H           9.9359    4.3655    5.9915 H       1  UNL1        0.0000
     33 H          10.5102    2.7038    5.8169 H       1  UNL1        0.0000
     34 H          11.0073    3.6595    7.2082 H       1  UNL1        0.0000
     35 H           7.9391    4.2469   10.2250 H       1  UNL1        0.0000
     36 H           7.4172    5.2335   11.5757 H       1  UNL1        0.0000
     37 H           6.3439    4.9684   10.2177 H       1  UNL1        0.0000
     38 H           7.5410    1.1662   13.1063 H       1  UNL1        0.0000
     39 H           8.3174    2.7199   13.3443 H       1  UNL1        0.0000
     40 H           8.6285    1.8028   11.8850 H       1  UNL1        0.0000
     41 H           4.6245    2.7085   13.5063 H       1  UNL1        0.0000
     42 H           4.3681    4.1842   12.5901 H       1  UNL1        0.0000
     43 H           5.6088    4.1317   13.8313 H       1  UNL1        0.0000
@<TRIPOS>BOND
     1    23     3    1
     2    33    13    1
     3    26     4    1
     4    22     3    1
     5    32    13    1
     6     3    24    1
     7     3     1    1
     8    13    34    1
     9    13    10    1
    10    29     9    1
    11    21     2    1
    12     4    27    1
    13     4    25    1
    14     4     1    1
    15     9    10   ar
    16     9     8   ar
    17    10    11   ar
    18     1     2    1
    19     1     5    1
    20     2    20    1
    21     2    19    1
    22    28     8    1
    23     8     7   ar
    24    11    30    1
    25    11    12   ar
    26     7    12   ar
    27     7     6    1
    28    12    31    1
    29     5     6    1
    30     6    14    1
    31    37    16    1
    32    35    16    1
    33    14    15    1
    34    16    36    1
    35    16    15    1
    36    15    17    1
    37    15    18    1
    38    40    17    1
    39    42    18    1
    40    17    38    1
    41    17    39    1
    42    18    41    1
    43    18    43    1
