@<TRIPOS>MOLECULE
1,30
 43 43 0 0 0
SMALL
GASTEIGER

@<TRIPOS>ATOM
      1 N           3.2437    0.5764   12.8046 N.3     1  UNL1        0.0000
      2 SI          3.2944   -0.1762   14.3616 Si      1  UNL1        0.0000
      3 C           2.6740   -1.9830   14.1768 C.3     1  UNL1        0.0000
      4 H           3.1290   -2.4610   13.3127 H       1  UNL1        0.0000
      5 H           1.5955   -2.0240   14.0493 H       1  UNL1        0.0000
      6 H           2.9201   -2.5729   15.0538 H       1  UNL1        0.0000
      7 C           2.2768    0.6067   15.7862 C.3     1  UNL1        0.0000
      8 H           2.5676    1.6348   15.9753 H       1  UNL1        0.0000
      9 H           2.4386    0.0479   16.7030 H       1  UNL1        0.0000
     10 H           1.2109    0.6014   15.5836 H       1  UNL1        0.0000
     11 C           5.1213   -0.1637   14.9395 C.3     1  UNL1        0.0000
     12 H           5.7043   -0.9082   14.4083 H       1  UNL1        0.0000
     13 H           5.1915   -0.3900   15.9987 H       1  UNL1        0.0000
     14 H           5.5901    0.8024   14.7753 H       1  UNL1        0.0000
     15 C           2.3891    1.4659   12.3347 C.3     1  UNL1        0.0000
     16 C           1.2602    1.9912   13.1437 C.ar    1  UNL1        0.0000
     17 C           1.3858    3.1056   13.9602 C.ar    1  UNL1        0.0000
     18 C           0.2932    3.5786   14.6658 C.ar    1  UNL1        0.0000
     19 C          -0.9422    2.9529   14.5734 C.ar    1  UNL1        0.0000
     20 C          -1.0608    1.8358   13.7526 C.ar    1  UNL1        0.0000
     21 C           0.0250    1.3597   13.0440 C.ar    1  UNL1        0.0000
     22 H          -0.0707    0.4906   12.4080 H       1  UNL1        0.0000
     23 H          -2.0169    1.3379   13.6715 H       1  UNL1        0.0000
     24 C          -2.1295    3.4547   15.3385 C.3     1  UNL1        0.0000
     25 H          -1.8878    4.3655   15.8802 H       1  UNL1        0.0000
     26 H          -2.4621    2.7038   16.0546 H       1  UNL1        0.0000
     27 H          -2.9592    3.6595   14.6634 H       1  UNL1        0.0000
     28 H           0.4029    4.4485   15.2979 H       1  UNL1        0.0000
     29 H           2.3399    3.6036   14.0416 H       1  UNL1        0.0000
     30 N           2.5489    1.8293   11.0880 N.3     1  UNL1        0.0000
     31 SI          1.6649    2.9492   10.1313 Si      1  UNL1        0.0000
     32 C           0.9601    4.4951   11.0206 C.3     1  UNL1        0.0000
     33 H           0.1090    4.2469   11.6465 H       1  UNL1        0.0000
     34 H           0.6309    5.2335   10.2959 H       1  UNL1        0.0000
     35 H           1.7042    4.9684   11.6539 H       1  UNL1        0.0000
     36 C           0.1894    2.0744    9.2697 C.3     1  UNL1        0.0000
     37 H           0.5071    1.1662    8.7653 H       1  UNL1        0.0000
     38 H          -0.2693    2.7199    8.5273 H       1  UNL1        0.0000
     39 H          -0.5804    1.8028    9.9866 H       1  UNL1        0.0000
     40 C           2.9207    3.5555    8.8243 C.3     1  UNL1        0.0000
     41 H           3.4237    2.7085    8.3653 H       1  UNL1        0.0000
     42 H           3.6800    4.1842    9.2815 H       1  UNL1        0.0000
     43 H           2.4393    4.1317    8.0403 H       1  UNL1        0.0000
@<TRIPOS>BOND
     1    43    40    1
     2    41    40    1
     3    38    36    1
     4    37    36    1
     5    40    42    1
     6    40    31    1
     7    36    39    1
     8    36    31    1
     9    31    32    1
    10    31    30    1
    11    34    32    1
    12    32    33    1
    13    32    35    1
    14    30    15    1
    15    15     1    1
    16    15    16    1
    17    22    21    1
    18     1     2    1
    19    21    16   ar
    20    21    20   ar
    21    16    17   ar
    22     4     3    1
    23    23    20    1
    24    20    19   ar
    25    17    29    1
    26    17    18   ar
    27     5     3    1
    28     3     2    1
    29     3     6    1
    30     2    11    1
    31     2     7    1
    32    12    11    1
    33    19    18   ar
    34    19    24    1
    35    27    24    1
    36    18    28    1
    37    14    11    1
    38    11    13    1
    39    24    25    1
    40    24    26    1
    41    10     7    1
    42     7     8    1
    43     7     9    1
