@<TRIPOS>MOLECULE
3,4
 50 49 0 0 0
SMALL
GASTEIGER

@<TRIPOS>ATOM
      1 SI         12.6120   10.9174   16.8256 Si      1  UNL1        0.0000
      2 SI         14.8904    9.2065   15.4924 Si      1  UNL1        0.0000
      3 N          12.9822   11.4384   13.4818 N.3     1  UNL1        0.0000
      4 N          14.6758   12.5059   14.4737 N.3     1  UNL1        0.0000
      5 N          13.7805   10.5635   15.5626 N.3     1  UNL1        0.0000
      6 C          13.8210   11.5001   14.5013 C.3     1  UNL1        0.0000
      7 C          12.0739   10.3206   13.3121 C.3     1  UNL1        0.0000
      8 C          10.6492   10.8454   13.1170 C.3     1  UNL1        0.0000
      9 C          12.4937    9.4860   12.0961 C.3     1  UNL1        0.0000
     10 C          15.6116   12.7075   15.5656 C.3     1  UNL1        0.0000
     11 C          17.0531   12.6452   15.0482 C.3     1  UNL1        0.0000
     12 C          15.3646   14.0613   16.2349 C.3     1  UNL1        0.0000
     13 C          11.8972   12.6677   16.5839 C.3     1  UNL1        0.0000
     14 C          13.4541   10.8209   18.5351 C.3     1  UNL1        0.0000
     15 C          11.1618    9.6705   16.8478 C.3     1  UNL1        0.0000
     16 C          15.8368    9.2405   13.8383 C.3     1  UNL1        0.0000
     17 C          16.1890    9.2206   16.8958 C.3     1  UNL1        0.0000
     18 C          13.9203    7.5696   15.6415 C.3     1  UNL1        0.0000
     19 H          12.0970    9.6763   14.2001 H       1  UNL1        0.0000
     20 H          10.6368   11.5619   12.2945 H       1  UNL1        0.0000
     21 H           9.9678   10.0282   12.8877 H       1  UNL1        0.0000
     22 H          10.3042   11.3422   14.0208 H       1  UNL1        0.0000
     23 H          13.4329    8.9789   12.2962 H       1  UNL1        0.0000
     24 H          11.7366    8.7382   11.8676 H       1  UNL1        0.0000
     25 H          12.6281   10.1379   11.2340 H       1  UNL1        0.0000
     26 H          15.4773   11.9209   16.3189 H       1  UNL1        0.0000
     27 H          17.7520   12.7916   15.8696 H       1  UNL1        0.0000
     28 H          17.2517   11.6800   14.5899 H       1  UNL1        0.0000
     29 H          17.2160   13.4269   14.3083 H       1  UNL1        0.0000
     30 H          16.1198   14.2487   16.9960 H       1  UNL1        0.0000
     31 H          15.4100   14.8479   15.4857 H       1  UNL1        0.0000
     32 H          14.3849   14.0784   16.7027 H       1  UNL1        0.0000
     33 H          12.2031   13.3388   17.3813 H       1  UNL1        0.0000
     34 H          12.2303   13.0939   15.6418 H       1  UNL1        0.0000
     35 H          10.8113   12.6526   16.5775 H       1  UNL1        0.0000
     36 H          12.7855   11.2119   19.2955 H       1  UNL1        0.0000
     37 H          13.6824    9.7957   18.8059 H       1  UNL1        0.0000
     38 H          14.3747   11.3933   18.5812 H       1  UNL1        0.0000
     39 H          10.5673    9.8225   17.7438 H       1  UNL1        0.0000
     40 H          10.4994    9.7836   15.9955 H       1  UNL1        0.0000
     41 H          11.5082    8.6431   16.8598 H       1  UNL1        0.0000
     42 H          16.9108    9.1983   13.9940 H       1  UNL1        0.0000
     43 H          15.5737    8.3999   13.2031 H       1  UNL1        0.0000
     44 H          15.6130   10.1543   13.2973 H       1  UNL1        0.0000
     45 H          15.7315    9.2246   17.8783 H       1  UNL1        0.0000
     46 H          16.8009    8.3259   16.8284 H       1  UNL1        0.0000
     47 H          16.8560   10.0750   16.8387 H       1  UNL1        0.0000
     48 H          13.5197    7.4393   16.6412 H       1  UNL1        0.0000
     49 H          13.0948    7.5078   14.9396 H       1  UNL1        0.0000
     50 H          14.5797    6.7297   15.4474 H       1  UNL1        0.0000
@<TRIPOS>BOND
     1    25     9    1
     2    24     9    1
     3     9    23    1
     4     9     7    1
     5    20     8    1
     6    21     8    1
     7     8     7    1
     8     8    22    1
     9    43    16    1
    10    44    16    1
    11     7     3    1
    12     7    19    1
    13     3     6    1
    14    16    42    1
    15    16     2    1
    16    29    11    1
    17     4     6    1
    18     4    10    1
    19     6     5    1
    20    28    11    1
    21    49    18    1
    22    11    10    1
    23    11    27    1
    24    50    18    1
    25    31    12    1
    26     2     5    1
    27     2    18    1
    28     2    17    1
    29     5     1    1
    30    10    12    1
    31    10    26    1
    32    18    48    1
    33    34    13    1
    34    40    15    1
    35    12    32    1
    36    12    30    1
    37    35    13    1
    38    13     1    1
    39    13    33    1
    40     1    15    1
    41     1    14    1
    42    46    17    1
    43    47    17    1
    44    15    41    1
    45    15    39    1
    46    17    45    1
    47    14    38    1
    48    14    37    1
    49    14    36    1
