@<TRIPOS>MOLECULE
3,4
 50 49 0 0 0
SMALL
GASTEIGER

@<TRIPOS>ATOM
      1 SI         11.8717   18.2551   11.3056 Si      1  UNL1        0.0000
      2 SI         12.5649   18.0379   14.3654 Si      1  UNL1        0.0000
      3 N          14.0917   15.7043   12.4120 N.3     1  UNL1        0.0000
      4 N          11.9649   15.0532   12.6221 N.3     1  UNL1        0.0000
      5 N          12.4359   17.4039   12.7324 N.3     1  UNL1        0.0000
      6 C          12.8275   16.0516   12.5796 C.3     1  UNL1        0.0000
      7 C          15.1330   16.6958   12.2227 C.3     1  UNL1        0.0000
      8 C          15.6690   16.6249   10.7878 C.3     1  UNL1        0.0000
      9 C          16.2693   16.4388   13.2156 C.3     1  UNL1        0.0000
     10 C          10.5540   15.3072   12.8533 C.3     1  UNL1        0.0000
     11 C           9.7214   14.8061   11.6676 C.3     1  UNL1        0.0000
     12 C          10.0916   14.6096   14.1344 C.3     1  UNL1        0.0000
     13 C          12.8881   19.8520   11.0611 C.3     1  UNL1        0.0000
     14 C          10.0332   18.7686   11.4136 C.3     1  UNL1        0.0000
     15 C          12.0632   17.1349    9.7755 C.3     1  UNL1        0.0000
     16 C          13.9654   19.3290   14.5402 C.3     1  UNL1        0.0000
     17 C          12.8970   16.6188   15.5936 C.3     1  UNL1        0.0000
     18 C          10.9413   18.9141   14.8515 C.3     1  UNL1        0.0000
     19 H          14.7320   17.7028   12.3941 H       1  UNL1        0.0000
     20 H          15.9348   15.5966   10.5467 H       1  UNL1        0.0000
     21 H          14.9095   16.9592   10.0872 H       1  UNL1        0.0000
     22 H          16.5468   17.2589   10.6776 H       1  UNL1        0.0000
     23 H          15.9208   16.5921   14.2343 H       1  UNL1        0.0000
     24 H          16.6137   15.4089   13.1129 H       1  UNL1        0.0000
     25 H          17.1025   17.1134   13.0276 H       1  UNL1        0.0000
     26 H          10.3853   16.3857   12.9669 H       1  UNL1        0.0000
     27 H           8.6661   15.0091   11.8396 H       1  UNL1        0.0000
     28 H          10.0267   15.3031   10.7507 H       1  UNL1        0.0000
     29 H           9.8546   13.7322   11.5479 H       1  UNL1        0.0000
     30 H           9.0162   14.7236   14.2585 H       1  UNL1        0.0000
     31 H          10.3340   13.5514   14.0761 H       1  UNL1        0.0000
     32 H          10.5905   15.0365   14.9991 H       1  UNL1        0.0000
     33 H          13.9583   19.6714   11.0698 H       1  UNL1        0.0000
     34 H          12.6398   20.3064   10.1073 H       1  UNL1        0.0000
     35 H          12.6660   20.5820   11.8324 H       1  UNL1        0.0000
     36 H           9.8364   19.4110   12.2640 H       1  UNL1        0.0000
     37 H           9.7616   19.3237   10.5205 H       1  UNL1        0.0000
     38 H           9.3649   17.9161   11.4818 H       1  UNL1        0.0000
     39 H          12.3565   16.1347   10.0777 H       1  UNL1        0.0000
     40 H          11.1328   17.0577    9.2205 H       1  UNL1        0.0000
     41 H          12.8140   17.5126    9.0877 H       1  UNL1        0.0000
     42 H          14.9540   18.8844   14.4864 H       1  UNL1        0.0000
     43 H          13.9093   20.0968   13.7766 H       1  UNL1        0.0000
     44 H          13.8837   19.8236   15.5035 H       1  UNL1        0.0000
     45 H          13.7547   16.8355   16.2236 H       1  UNL1        0.0000
     46 H          12.0497   16.4532   16.2526 H       1  UNL1        0.0000
     47 H          13.0969   15.6904   15.0659 H       1  UNL1        0.0000
     48 H          10.9530   19.1445   15.9120 H       1  UNL1        0.0000
     49 H          10.8250   19.8529   14.3210 H       1  UNL1        0.0000
     50 H          10.0631   18.3075   14.6567 H       1  UNL1        0.0000
@<TRIPOS>BOND
     1    41    15    1
     2    40    15    1
     3    15    39    1
     4    15     1    1
     5    21     8    1
     6    34    13    1
     7    37    14    1
     8    20     8    1
     9    22     8    1
    10    28    11    1
    11     8     7    1
    12    13    33    1
    13    13     1    1
    14    13    35    1
    15     1    14    1
    16     1     5    1
    17    14    38    1
    18    14    36    1
    19    29    11    1
    20    11    27    1
    21    11    10    1
    22     7    19    1
    23     7     3    1
    24     7     9    1
    25     3     6    1
    26     6     4    1
    27     6     5    1
    28     4    10    1
    29     5     2    1
    30    10    26    1
    31    10    12    1
    32    25     9    1
    33    24     9    1
    34     9    23    1
    35    43    16    1
    36    31    12    1
    37    12    30    1
    38    12    32    1
    39    49    18    1
    40     2    16    1
    41     2    18    1
    42     2    17    1
    43    42    16    1
    44    16    44    1
    45    50    18    1
    46    18    48    1
    47    47    17    1
    48    17    45    1
    49    17    46    1
