@<TRIPOS>MOLECULE
1,2
 35 34 0 0 0
SMALL
GASTEIGER

@<TRIPOS>ATOM
      1 N           2.2175   -1.1244   14.6830 N.3     1  UNL1       -0.1965
      2 N           3.1496    0.7372   15.3859 N.3     1  UNL1       -0.1965
      3 N           3.5607   -1.1845   16.6964 N.3     1  UNL1       -0.2780
      4 H           4.1898   -0.5789   17.2035 H       1  UNL1        0.1254
      5 C           2.0154   -2.5491   14.4847 C.3     1  UNL1        0.0232
      6 H           2.8194   -3.1214   14.9744 H       1  UNL1        0.0472
      7 C           2.0850   -2.8256   12.9775 C.3     1  UNL1       -0.0483
      8 H           3.0734   -2.5721   12.5931 H       1  UNL1        0.0245
      9 H           1.3267   -2.2253   12.4692 H       1  UNL1        0.0245
     10 H           1.8922   -3.8783   12.7817 H       1  UNL1        0.0245
     11 C           0.6445   -2.9918   15.0186 C.3     1  UNL1       -0.0483
     12 H           0.5075   -2.6932   16.0570 H       1  UNL1        0.0245
     13 H           0.5397   -4.0720   14.9446 H       1  UNL1        0.0245
     14 H          -0.1381   -2.5165   14.4305 H       1  UNL1        0.0245
     15 C           3.7092    1.6435   16.3792 C.3     1  UNL1        0.0232
     16 H           4.6992    1.2799   16.7200 H       1  UNL1        0.0472
     17 C           3.9190    3.0016   15.7086 C.3     1  UNL1       -0.0483
     18 H           4.6664    2.9181   14.9228 H       1  UNL1        0.0245
     19 H           4.2596    3.7314   16.4399 H       1  UNL1        0.0245
     20 H           2.9713    3.3365   15.2835 H       1  UNL1        0.0245
     21 C           2.7909    1.8158   17.5988 C.3     1  UNL1       -0.0483
     22 H           2.5973    0.8654   18.0891 H       1  UNL1        0.0245
     23 H           1.8404    2.2349   17.2753 H       1  UNL1        0.0245
     24 H           3.2489    2.4904   18.3190 H       1  UNL1        0.0245
     25 C           3.1738   -2.3384   17.4882 C.3     1  UNL1        0.0050
     26 H           2.3576   -2.8553   16.9872 H       1  UNL1        0.0456
     27 C           2.6838   -1.9001   18.8708 C.3     1  UNL1       -0.0498
     28 H           1.8135   -1.2532   18.7787 H       1  UNL1        0.0245
     29 H           3.4671   -1.3633   19.4039 H       1  UNL1        0.0245
     30 H           2.4024   -2.7697   19.4590 H       1  UNL1        0.0245
     31 C           4.3735   -3.2798   17.6122 C.3     1  UNL1       -0.0498
     32 H           4.7325   -3.5685   16.6273 H       1  UNL1        0.0245
     33 H           4.0946   -4.1761   18.1593 H       1  UNL1        0.0245
     34 H           5.1860   -2.7874   18.1424 H       1  UNL1        0.0245
     35 C           2.9510   -0.5603   15.6399 C.3     1  UNL1        0.2063
@<TRIPOS>BOND
     1     9     7    1
     2     8     7    1
     3    10     7    1
     4     7     5    1
     5    14    11    1
     6     5     1    1
     7     5     6    1
     8     5    11    1
     9     1    35    1
    10    18    17    1
    11    13    11    1
    12    11    12    1
    13    20    17    1
    14     2    35    1
    15     2    15    1
    16    35     3    1
    17    17    15    1
    18    17    19    1
    19    15    16    1
    20    15    21    1
    21    32    31    1
    22     3     4    1
    23     3    25    1
    24    26    25    1
    25    23    21    1
    26    25    31    1
    27    25    27    1
    28    21    22    1
    29    21    24    1
    30    31    34    1
    31    31    33    1
    32    28    27    1
    33    27    29    1
    34    27    30    1
