@<TRIPOS>MOLECULE
1,2
 80 81 0 0 0
SMALL
GASTEIGER

@<TRIPOS>ATOM
      1 N           8.8920    2.3333    5.2737 N.pl3   1  UNL1        0.0000
      2 N           8.6294    4.9966    4.3641 N.pl3   1  UNL1        0.0000
      3 SI          6.1042    1.5009    2.5735 Si      1  UNL1        0.0000
      4 C           7.6274    4.0019    4.0738 C.3     1  UNL1        0.0000
      5 H           7.5674    3.8391    2.9763 H       1  UNL1        0.0000
      6 H           6.6212    4.3414    4.3653 H       1  UNL1        0.0000
      7 C           7.8165    2.6263    4.6488 C.3     1  UNL1        0.0000
      8 C           6.6945    1.6793    4.4062 C.3     1  UNL1        0.0000
      9 H           5.8303    2.0324    4.9711 H       1  UNL1        0.0000
     10 H           6.9634    0.7000    4.8055 H       1  UNL1        0.0000
     11 C           7.4756    1.7532    1.2690 C.3     1  UNL1        0.0000
     12 H           7.2374    2.5835    0.6100 H       1  UNL1        0.0000
     13 H           7.5870    0.8711    0.6452 H       1  UNL1        0.0000
     14 H           8.4425    1.9608    1.7151 H       1  UNL1        0.0000
     15 C           4.6882    2.7462    2.2701 C.3     1  UNL1        0.0000
     16 H           5.0243    3.7760    2.3470 H       1  UNL1        0.0000
     17 H           3.8788    2.6119    2.9823 H       1  UNL1        0.0000
     18 H           4.2686    2.6158    1.2771 H       1  UNL1        0.0000
     19 C           5.4075   -0.2719    2.4466 C.3     1  UNL1        0.0000
     20 H           4.6188   -0.4439    3.1729 H       1  UNL1        0.0000
     21 H           6.1752   -1.0213    2.6160 H       1  UNL1        0.0000
     22 H           4.9879   -0.4526    1.4622 H       1  UNL1        0.0000
     23 C           8.0830    6.2836    4.4974 C.ar    1  UNL1        0.0000
     24 C           7.2491    6.6317    5.5842 C.ar    1  UNL1        0.0000
     25 C           6.6755    7.8930    5.6365 C.ar    1  UNL1        0.0000
     26 H           6.0277    8.1521    6.4621 H       1  UNL1        0.0000
     27 C           6.9137    8.8290    4.6500 C.ar    1  UNL1        0.0000
     28 H           6.4466    9.8021    4.6965 H       1  UNL1        0.0000
     29 C           7.7584    8.5088    3.6028 C.ar    1  UNL1        0.0000
     30 H           7.9361    9.2461    2.8342 H       1  UNL1        0.0000
     31 C           8.3493    7.2598    3.5116 C.ar    1  UNL1        0.0000
     32 C           7.0232    5.6748    6.7358 C.3     1  UNL1        0.0000
     33 H           7.6451    4.7874    6.5634 H       1  UNL1        0.0000
     34 C           5.5571    5.2475    6.8467 C.3     1  UNL1        0.0000
     35 H           4.9249    6.1066    7.0606 H       1  UNL1        0.0000
     36 H           5.4344    4.5238    7.6505 H       1  UNL1        0.0000
     37 H           5.2046    4.7952    5.9213 H       1  UNL1        0.0000
     38 C           7.4781    6.2994    8.0587 C.3     1  UNL1        0.0000
     39 H           8.5197    6.6067    7.9958 H       1  UNL1        0.0000
     40 H           7.3833    5.5750    8.8655 H       1  UNL1        0.0000
     41 H           6.8767    7.1696    8.3111 H       1  UNL1        0.0000
     42 C           9.2198    6.9078    2.3256 C.3     1  UNL1        0.0000
     43 H           9.8793    6.0850    2.6343 H       1  UNL1        0.0000
     44 C           8.3387    6.4176    1.1718 C.3     1  UNL1        0.0000
     45 H           7.7339    5.5715    1.4877 H       1  UNL1        0.0000
     46 H           8.9539    6.1098    0.3287 H       1  UNL1        0.0000
     47 H           7.6700    7.2118    0.8439 H       1  UNL1        0.0000
     48 C          10.0937    8.0666    1.8474 C.3     1  UNL1        0.0000
     49 H           9.4954    8.8674    1.4184 H       1  UNL1        0.0000
     50 H          10.7773    7.7167    1.0773 H       1  UNL1        0.0000
     51 H          10.6793    8.4718    2.6694 H       1  UNL1        0.0000
     52 C           9.0885    1.0819    5.8982 C.ar    1  UNL1        0.0000
     53 C           8.5077    0.8168    7.1499 C.ar    1  UNL1        0.0000
     54 C           8.7802   -0.3924    7.7737 C.ar    1  UNL1        0.0000
     55 H           8.3378   -0.6031    8.7355 H       1  UNL1        0.0000
     56 C           9.6000   -1.3355    7.1874 C.ar    1  UNL1        0.0000
     57 H           9.7953   -2.2729    7.6864 H       1  UNL1        0.0000
     58 C          10.1656   -1.0699    5.9562 C.ar    1  UNL1        0.0000
     59 H          10.8008   -1.8102    5.4957 H       1  UNL1        0.0000
     60 C           9.9279    0.1291    5.3015 C.ar    1  UNL1        0.0000
     61 C           7.6016    1.8075    7.8457 C.3     1  UNL1        0.0000
     62 H           7.5251    2.7063    7.2281 H       1  UNL1        0.0000
     63 C           6.1955    1.2290    8.0323 C.3     1  UNL1        0.0000
     64 H           5.7779    0.9032    7.0828 H       1  UNL1        0.0000
     65 H           5.5347    1.9802    8.4607 H       1  UNL1        0.0000
     66 H           6.2159    0.3738    8.7035 H       1  UNL1        0.0000
     67 C           8.1839    2.2157    9.2012 C.3     1  UNL1        0.0000
     68 H           8.1997    1.3734    9.8888 H       1  UNL1        0.0000
     69 H           7.5793    3.0039    9.6462 H       1  UNL1        0.0000
     70 H           9.2007    2.5804    9.0814 H       1  UNL1        0.0000
     71 C          10.5306    0.3674    3.9362 C.3     1  UNL1        0.0000
     72 H          10.4319    1.4345    3.6965 H       1  UNL1        0.0000
     73 C           9.7639   -0.4511    2.8929 C.3     1  UNL1        0.0000
     74 H           9.8780   -1.5150    3.0922 H       1  UNL1        0.0000
     75 H          10.1444   -0.2463    1.8946 H       1  UNL1        0.0000
     76 H           8.7040   -0.2109    2.9183 H       1  UNL1        0.0000
     77 C          12.0175    0.0082    3.8886 C.3     1  UNL1        0.0000
     78 H          12.5436    0.4345    4.7393 H       1  UNL1        0.0000
     79 H          12.4616    0.4001    2.9765 H       1  UNL1        0.0000
     80 H          12.1642   -1.0693    3.9004 H       1  UNL1        0.0000
@<TRIPOS>BOND
     1    46    44    1
     2    12    11    1
     3    13    11    1
     4    47    44    1
     5    50    48    1
     6    44    45    1
     7    44    42    1
     8    11    14    1
     9    11     3    1
    10    18    15    1
    11    49    48    1
    12    22    19    1
    13    48    42    1
    14    48    51    1
    15    75    73    1
    16    15    16    1
    17    15     3    1
    18    15    17    1
    19    42    43    1
    20    42    31    1
    21    19     3    1
    22    19    21    1
    23    19    20    1
    24     3     8    1
    25    30    29    1
    26    73    76    1
    27    73    74    1
    28    73    71    1
    29     5     4    1
    30    79    77    1
    31    31    29   ar
    32    31    23   ar
    33    29    27   ar
    34    72    71    1
    35    77    80    1
    36    77    71    1
    37    77    78    1
    38    71    60    1
    39     4     2    1
    40     4     6    1
    41     4     7    1
    42     2    23    1
    43     8     7    1
    44     8    10    1
    45     8     9    1
    46    23    24   ar
    47     7     1    1
    48    27    28    1
    49    27    25   ar
    50     1    52    1
    51    60    52   ar
    52    60    58   ar
    53    59    58    1
    54    24    25   ar
    55    24    32    1
    56    25    26    1
    57    52    53   ar
    58    37    34    1
    59    58    56   ar
    60    33    32    1
    61    32    34    1
    62    32    38    1
    63    34    35    1
    64    34    36    1
    65    64    63    1
    66    53    54   ar
    67    53    61    1
    68    56    57    1
    69    56    54   ar
    70    62    61    1
    71    54    55    1
    72    61    63    1
    73    61    67    1
    74    39    38    1
    75    63    65    1
    76    63    66    1
    77    38    41    1
    78    38    40    1
    79    70    67    1
    80    67    69    1
    81    67    68    1
