@<TRIPOS>MOLECULE
1,2
 56 57 0 0 0
SMALL
GASTEIGER

@<TRIPOS>ATOM
      1 N           5.1853    7.3448    2.6895 N.pl3   1  UNL1        0.0000
      2 N           3.5612    9.5408    2.8603 N.pl3   1  UNL1        0.0000
      3 SI          0.9349    8.6061    0.5263 Si      1  UNL1        0.0000
      4 C           4.3591    7.7028    1.5582 C.3     1  UNL1        0.0000
      5 H           3.6290    6.8915    1.3550 H       1  UNL1        0.0000
      6 H           4.9422    7.8015    0.6295 H       1  UNL1        0.0000
      7 C           3.5363    8.9483    1.7261 C.3     1  UNL1        0.0000
      8 C           2.7229    9.3558    0.5564 C.3     1  UNL1        0.0000
      9 H           3.2292    9.0557   -0.3592 H       1  UNL1        0.0000
     10 H           2.6054   10.4369    0.5445 H       1  UNL1        0.0000
     11 C           0.7865    7.0392    1.5966 C.3     1  UNL1        0.0000
     12 H          -0.2537    6.8186    1.8187 H       1  UNL1        0.0000
     13 H           1.3115    7.1420    2.5404 H       1  UNL1        0.0000
     14 H           1.1947    6.1705    1.0873 H       1  UNL1        0.0000
     15 C           0.5817    8.1513   -1.2948 C.3     1  UNL1        0.0000
     16 H           1.2573    7.3813   -1.6559 H       1  UNL1        0.0000
     17 H           0.6848    9.0113   -1.9498 H       1  UNL1        0.0000
     18 H          -0.4298    7.7754   -1.4095 H       1  UNL1        0.0000
     19 C          -0.2750    9.9745    1.0760 C.3     1  UNL1        0.0000
     20 H          -0.3982   10.7171    0.2926 H       1  UNL1        0.0000
     21 H           0.0723   10.4971    1.9619 H       1  UNL1        0.0000
     22 H          -1.2586    9.5692    1.2929 H       1  UNL1        0.0000
     23 C           6.3672    6.6944    2.3232 C.ar    1  UNL1        0.0000
     24 C           7.3606    7.2934    1.5161 C.ar    1  UNL1        0.0000
     25 C           8.4955    6.5745    1.1703 C.ar    1  UNL1        0.0000
     26 H           9.2488    7.0486    0.5545 H       1  UNL1        0.0000
     27 C           8.6882    5.2781    1.6090 C.ar    1  UNL1        0.0000
     28 H           9.5731    4.7293    1.3211 H       1  UNL1        0.0000
     29 C           7.7395    4.6985    2.4360 C.ar    1  UNL1        0.0000
     30 H           7.8885    3.6872    2.7923 H       1  UNL1        0.0000
     31 C           6.5937    5.3831    2.7957 C.ar    1  UNL1        0.0000
     32 C           7.2672    8.7401    1.1103 C.3     1  UNL1        0.0000
     33 H           8.2641    9.1783    1.0658 H       1  UNL1        0.0000
     34 H           6.6688    9.2927    1.8433 H       1  UNL1        0.0000
     35 H           6.8135    8.8632    0.1249 H       1  UNL1        0.0000
     36 C           5.5630    4.7351    3.6721 C.3     1  UNL1        0.0000
     37 H           4.6713    4.5000    3.0911 H       1  UNL1        0.0000
     38 H           5.2641    5.4225    4.4692 H       1  UNL1        0.0000
     39 H           5.9439    3.8108    4.1028 H       1  UNL1        0.0000
     40 C           2.8520   10.7346    3.1006 C.ar    1  UNL1        0.0000
     41 C           3.2826   11.9548    2.5608 C.ar    1  UNL1        0.0000
     42 C           2.6042   13.1187    2.8971 C.ar    1  UNL1        0.0000
     43 H           2.9442   14.0566    2.4815 H       1  UNL1        0.0000
     44 C           1.5151   13.0951    3.7455 C.ar    1  UNL1        0.0000
     45 H           0.9998   14.0097    3.9966 H       1  UNL1        0.0000
     46 C           1.0951   11.8889    4.2743 C.ar    1  UNL1        0.0000
     47 H           0.2454   11.8592    4.9410 H       1  UNL1        0.0000
     48 C           1.7486   10.7056    3.9654 C.ar    1  UNL1        0.0000
     49 C           4.4595   12.0650    1.6319 C.3     1  UNL1        0.0000
     50 H           4.9625   11.1107    1.4993 H       1  UNL1        0.0000
     51 H           5.1756   12.7847    2.0272 H       1  UNL1        0.0000
     52 H           4.1369   12.4259    0.6541 H       1  UNL1        0.0000
     53 C           1.2461    9.4133    4.5370 C.3     1  UNL1        0.0000
     54 H           0.8326    9.5774    5.5298 H       1  UNL1        0.0000
     55 H           2.0505    8.6797    4.6033 H       1  UNL1        0.0000
     56 H           0.4554    9.0034    3.9079 H       1  UNL1        0.0000
@<TRIPOS>BOND
     1    17    15    1
     2    16    15    1
     3    18    15    1
     4    15     3    1
     5     9     8    1
     6    35    32    1
     7    20    19    1
     8     3     8    1
     9     3    19    1
    10     3    11    1
    11    10     8    1
    12    26    25    1
    13     8     7    1
    14     6     4    1
    15    52    49    1
    16    33    32    1
    17    19    22    1
    18    19    21    1
    19    14    11    1
    20    32    24    1
    21    32    34    1
    22    25    24   ar
    23    25    27   ar
    24    28    27    1
    25     5     4    1
    26    50    49    1
    27    24    23   ar
    28     4     7    1
    29     4     1    1
    30    11    12    1
    31    11    13    1
    32    27    29   ar
    33    49    51    1
    34    49    41    1
    35     7     2    1
    36    23     1    1
    37    23    31   ar
    38    29    30    1
    39    29    31   ar
    40    43    42    1
    41    41    42   ar
    42    41    40   ar
    43    31    36    1
    44     2    40    1
    45    42    44   ar
    46    37    36    1
    47    40    48   ar
    48    36    39    1
    49    36    38    1
    50    44    45    1
    51    44    46   ar
    52    56    53    1
    53    48    46   ar
    54    48    53    1
    55    46    47    1
    56    53    55    1
    57    53    54    1
