@<TRIPOS>MOLECULE
1,2
 20 21 0 0 0
SMALL
GASTEIGER

@<TRIPOS>ATOM
      1 N           7.0423    3.2016   12.7856 N.pl3   1  UNL1       -0.2427
      2 N           8.2927    1.7110   10.8551 N.pl3   1  UNL1       -0.2387
      3 C           6.5083    4.0776   13.6284 C.3     1  UNL1        0.0844
      4 H           7.0469    4.2398   14.5509 H       1  UNL1        0.0584
      5 C           5.3391    4.7759   13.3760 C.2     1  UNL1       -0.0600
      6 H           4.9522    5.4755   14.0992 H       1  UNL1        0.0592
      7 C           4.6948    4.5643   12.1652 C.2     1  UNL1       -0.0623
      8 H           3.7965    5.1073   11.9127 H       1  UNL1        0.0616
      9 C           5.2282    3.6426   11.2866 C.2     1  UNL1       -0.0408
     10 H           4.7584    3.4718   10.3312 H       1  UNL1        0.0634
     11 C           6.3949    2.9557   11.6332 C.2     1  UNL1        0.0578
     12 C           6.9766    1.9504   10.7362 C.3     1  UNL1        0.1419
     13 C           6.1885    1.2686    9.8053 C.2     1  UNL1       -0.0507
     14 H           5.1236    1.4306    9.7686 H       1  UNL1        0.0598
     15 C           6.7785    0.3518    8.9574 C.2     1  UNL1       -0.0620
     16 H           6.1832   -0.1916    8.2390 H       1  UNL1        0.0616
     17 C           8.1475    0.1457    9.0517 C.2     1  UNL1       -0.0466
     18 H           8.6579   -0.5475    8.4033 H       1  UNL1        0.0630
     19 C           8.8504    0.8413   10.0208 C.2     1  UNL1        0.0129
     20 H           9.9148    0.6886   10.1315 H       1  UNL1        0.0798
@<TRIPOS>BOND
     1    16    15    1
     2    18    17    1
     3    15    17    1
     4    15    13    2
     5    17    19    2
     6    14    13    1
     7    13    12    1
     8    19    20    1
     9    19     2    1
    10    10     9    1
    11    12     2    1
    12    12    11    1
    13     9    11    2
    14     9     7    1
    15    11     1    1
    16     8     7    1
    17     7     5    2
    18     1     3    1
    19     5     3    1
    20     5     6    1
    21     3     4    1
