@<TRIPOS>MOLECULE
1,3
 47 47 0 0 0
SMALL
GASTEIGER

@<TRIPOS>ATOM
      1 N          11.2058   12.1455   12.3023 N.pl3   1  UNL1        0.0000
      2 N          12.6698   13.6684   11.2169 N.3     1  UNL1        0.0000
      3 N          13.3732   12.0847   12.8418 N.pl3   1  UNL1        0.3300
      4 N          15.6152   11.6610   13.1985 N.pl3   1  UNL1        0.3300
      5 N          14.6605   11.5301   11.0281 N.pl3   1  UNL1        0.3300
      6 SI         15.7437   11.2526    9.7528 Si      1  UNL1        0.0000
      7 C           9.9981   12.7700   12.0095 C.ar    1  UNL1        0.0000
      8 C           9.7273   14.0871   12.3952 C.ar    1  UNL1        0.0000
      9 H          10.4943   14.6514   12.9024 H       1  UNL1        0.0000
     10 C           8.4890   14.6488   12.1555 C.ar    1  UNL1        0.0000
     11 H           8.2964   15.6630   12.4744 H       1  UNL1        0.0000
     12 C           7.4980   13.9262   11.5112 C.ar    1  UNL1        0.0000
     13 H           6.5333   14.3717   11.3209 H       1  UNL1        0.0000
     14 C           7.7568   12.6241   11.1144 C.ar    1  UNL1        0.0000
     15 H           6.9916   12.0518   10.6085 H       1  UNL1        0.0000
     16 C           8.9879   12.0479   11.3636 C.ar    1  UNL1        0.0000
     17 H           9.1859   11.0291   11.0624 H       1  UNL1        0.0000
     18 C          12.4058   12.6527   12.0808 C.3     1  UNL1        0.0000
     19 C          11.8460   13.9451   10.0640 C.3     1  UNL1        0.0000
     20 H          11.1108   13.1582    9.9237 H       1  UNL1        0.0000
     21 H          12.4843   13.9860    9.1787 H       1  UNL1        0.0000
     22 H          11.3232   14.9006   10.1741 H       1  UNL1        0.0000
     23 C          13.9254   14.3801   11.2237 C.3     1  UNL1        0.0000
     24 H          14.4231   14.2538   12.1818 H       1  UNL1        0.0000
     25 H          13.7185   15.4411   11.0627 H       1  UNL1        0.0000
     26 H          14.5930   14.0129   10.4399 H       1  UNL1        0.0000
     27 C          14.5920   11.7293   12.2921 C.cat   1  UNL1        0.0000
     28 C          15.3555   11.9509   14.5945 C.3     1  UNL1        0.0000
     29 H          14.6753   12.7982   14.6815 H       1  UNL1        0.0000
     30 H          16.3062   12.2096   15.0641 H       1  UNL1        0.0000
     31 H          14.9312   11.0874   15.1310 H       1  UNL1        0.0000
     32 C          16.7136   10.7442   13.0097 C.3     1  UNL1        0.0000
     33 H          16.5342    9.8267   13.5772 H       1  UNL1        0.0000
     34 H          17.6390   11.2112   13.3524 H       1  UNL1        0.0000
     35 H          16.8071   10.4948   11.9608 H       1  UNL1        0.0000
     36 C          16.1098    9.3941    9.4768 C.3     1  UNL1        0.0000
     37 H          17.0776    9.2394    9.0092 H       1  UNL1        0.0000
     38 H          15.3620    8.9465    8.8302 H       1  UNL1        0.0000
     39 H          16.1023    8.8428   10.4122 H       1  UNL1        0.0000
     40 C          17.4104   12.2047    9.8279 C.3     1  UNL1        0.0000
     41 H          17.2979   13.1387   10.3714 H       1  UNL1        0.0000
     42 H          17.7693   12.4481    8.8323 H       1  UNL1        0.0000
     43 H          18.1913   11.6357   10.3236 H       1  UNL1        0.0000
     44 C          14.8182   11.8995    8.2067 C.3     1  UNL1        0.0000
     45 H          13.7661   11.6357    8.2399 H       1  UNL1        0.0000
     46 H          15.2377   11.4752    7.2999 H       1  UNL1        0.0000
     47 H          14.8845   12.9798    8.1141 H       1  UNL1        0.0000
@<TRIPOS>BOND
     1    46    44    1
     2    47    44    1
     3    44    45    1
     4    44     6    1
     5    38    36    1
     6    42    40    1
     7    37    36    1
     8    21    19    1
     9    36     6    1
    10    36    39    1
    11     6    40    1
    12     6     5    1
    13    40    43    1
    14    40    41    1
    15    20    19    1
    16    19    22    1
    17    19     2    1
    18    26    23    1
    19    15    14    1
    20     5    27    2
    21    17    16    1
    22    25    23    1
    23    14    16   ar
    24    14    12   ar
    25     2    23    1
    26     2    18    1
    27    23    24    1
    28    13    12    1
    29    16     7   ar
    30    12    10   ar
    31    35    32    1
    32     7     1    1
    33     7     8   ar
    34    18     1    1
    35    18     3    1
    36    10     8   ar
    37    10    11    1
    38    27     3    1
    39    27     4    1
    40     8     9    1
    41    32     4    1
    42    32    34    1
    43    32    33    1
    44     4    28    1
    45    28    29    1
    46    28    30    1
    47    28    31    1
