@<TRIPOS>MOLECULE
1,3
 47 47 0 0 0
SMALL
GASTEIGER

@<TRIPOS>ATOM
      1 N           9.9093   10.2379   14.3834 N.pl3   1  UNL1        0.0000
      2 N           8.5536    8.8004   13.0650 N.3     1  UNL1        0.0000
      3 N          10.7876    9.3884   12.5128 N.pl3   1  UNL1        0.3300
      4 N          11.9294    8.2866   10.8353 N.pl3   1  UNL1        0.3300
      5 N          10.8960    7.0999   12.6128 N.pl3   1  UNL1        0.3300
      6 SI         10.9058    5.4093   12.4745 Si      1  UNL1        0.0000
      7 C           8.9106   10.8222   15.1548 C.ar    1  UNL1        0.0000
      8 C           7.8388   11.5180   14.5856 C.ar    1  UNL1        0.0000
      9 H           7.7614   11.5709   13.5109 H       1  UNL1        0.0000
     10 C           6.9077   12.1504   15.3852 C.ar    1  UNL1        0.0000
     11 H           6.0957   12.6943   14.9245 H       1  UNL1        0.0000
     12 C           7.0052   12.0910   16.7659 C.ar    1  UNL1        0.0000
     13 H           6.2713   12.5819   17.3870 H       1  UNL1        0.0000
     14 C           8.0558   11.3957   17.3425 C.ar    1  UNL1        0.0000
     15 H           8.1402   11.3404   18.4190 H       1  UNL1        0.0000
     16 C           9.0018   10.7731   16.5506 C.ar    1  UNL1        0.0000
     17 H           9.8267   10.2394   17.0010 H       1  UNL1        0.0000
     18 C           9.7135    9.4544   13.3375 C.3     1  UNL1        0.0000
     19 C           7.6131    8.4196   14.0920 C.3     1  UNL1        0.0000
     20 H           8.0357    8.5912   15.0776 H       1  UNL1        0.0000
     21 H           7.3935    7.3548   13.9885 H       1  UNL1        0.0000
     22 H           6.6818    8.9884   14.0037 H       1  UNL1        0.0000
     23 C           8.2867    8.2070   11.7768 C.3     1  UNL1        0.0000
     24 H           8.9288    8.6497   11.0196 H       1  UNL1        0.0000
     25 H           7.2419    8.4001   11.5203 H       1  UNL1        0.0000
     26 H           8.4680    7.1293   11.7919 H       1  UNL1        0.0000
     27 C          11.2148    8.1781   11.9973 C.cat   1  UNL1        0.0000
     28 C          12.1628    9.5948   10.2573 C.3     1  UNL1        0.0000
     29 H          11.2657   10.2082   10.3424 H       1  UNL1        0.0000
     30 H          12.3982    9.4554    9.2007 H       1  UNL1        0.0000
     31 H          13.0073   10.1194   10.7313 H       1  UNL1        0.0000
     32 C          12.9628    7.3340   10.5077 C.3     1  UNL1        0.0000
     33 H          12.8046    6.4174   11.0610 H       1  UNL1        0.0000
     34 H          13.9416    7.7427   10.7734 H       1  UNL1        0.0000
     35 H          12.9342    7.1184    9.4377 H       1  UNL1        0.0000
     36 C          12.4848    4.6072   13.2000 C.3     1  UNL1        0.0000
     37 H          13.3715    5.1978   12.9901 H       1  UNL1        0.0000
     38 H          12.6478    3.6117   12.7979 H       1  UNL1        0.0000
     39 H          12.4058    4.5127   14.2781 H       1  UNL1        0.0000
     40 C          10.6056    4.6957   10.7167 C.3     1  UNL1        0.0000
     41 H          10.0161    5.3834   10.1165 H       1  UNL1        0.0000
     42 H          10.0651    3.7548   10.7601 H       1  UNL1        0.0000
     43 H          11.5322    4.5128   10.1808 H       1  UNL1        0.0000
     44 C           9.4310    4.8410   13.5555 C.3     1  UNL1        0.0000
     45 H           9.3686    5.4222   14.4699 H       1  UNL1        0.0000
     46 H           9.5369    3.7971   13.8336 H       1  UNL1        0.0000
     47 H           8.4815    4.9384   13.0369 H       1  UNL1        0.0000
@<TRIPOS>BOND
     1    30    28    1
     2    35    32    1
     3    41    40    1
     4    43    40    1
     5    28    29    1
     6    28    31    1
     7    28     4    1
     8    32    34    1
     9    32     4    1
    10    32    33    1
    11    40    42    1
    12    40     6    1
    13     4    27    1
    14    24    23    1
    15    25    23    1
    16    23    26    1
    17    23     2    1
    18    27     3    1
    19    27     5    2
    20     6     5    1
    21     6    36    1
    22     6    44    1
    23     3    18    1
    24    38    36    1
    25    37    36    1
    26    47    44    1
    27     2    18    1
    28     2    19    1
    29    36    39    1
    30    18     1    1
    31     9     8    1
    32    44    46    1
    33    44    45    1
    34    21    19    1
    35    22    19    1
    36    19    20    1
    37     1     7    1
    38     8     7   ar
    39     8    10   ar
    40    11    10    1
    41     7    16   ar
    42    10    12   ar
    43    16    17    1
    44    16    14   ar
    45    12    14   ar
    46    12    13    1
    47    14    15    1
