@<TRIPOS>MOLECULE
1,3
 47 47 0 0 0
SMALL
GASTEIGER

@<TRIPOS>ATOM
      1 N          12.0491   12.2961   15.2988 N.pl3   1  UNL1        0.0000
      2 N          12.4210   11.7730   17.5857 N.3     1  UNL1        0.0000
      3 N          12.2830   10.1458   15.8605 N.pl3   1  UNL1        0.3300
      4 N          14.3548    9.7383   16.7543 N.pl3   1  UNL1        0.3300
      5 N          12.8803    7.9486   16.2440 N.pl3   1  UNL1        0.3300
      6 SI         15.7904    9.3023   17.5464 Si      1  UNL1        0.0000
      7 C          11.5739   13.5933   15.4576 C.ar    1  UNL1        0.0000
      8 C          10.4575   13.8879   16.2475 C.ar    1  UNL1        0.0000
      9 H           9.9699   13.0882   16.7827 H       1  UNL1        0.0000
     10 C           9.9693   15.1773   16.3211 C.ar    1  UNL1        0.0000
     11 H           9.0974   15.3801   16.9262 H       1  UNL1        0.0000
     12 C          10.5870   16.2074   15.6307 C.ar    1  UNL1        0.0000
     13 H          10.2053   17.2150   15.6964 H       1  UNL1        0.0000
     14 C          11.7000   15.9311   14.8531 C.ar    1  UNL1        0.0000
     15 H          12.1917   16.7275   14.3120 H       1  UNL1        0.0000
     16 C          12.1868   14.6410   14.7606 C.ar    1  UNL1        0.0000
     17 H          13.0494   14.4245   14.1464 H       1  UNL1        0.0000
     18 C          12.2670   11.4352   16.2779 C.3     1  UNL1        0.0000
     19 C          12.9259   13.0595   18.0038 C.3     1  UNL1        0.0000
     20 H          13.2737   13.6288   17.1468 H       1  UNL1        0.0000
     21 H          13.7678   12.9023   18.6817 H       1  UNL1        0.0000
     22 H          12.1521   13.6366   18.5200 H       1  UNL1        0.0000
     23 C          12.3549   10.7972   18.6468 C.3     1  UNL1        0.0000
     24 H          11.8277    9.9092   18.3071 H       1  UNL1        0.0000
     25 H          11.8112   11.2396   19.4854 H       1  UNL1        0.0000
     26 H          13.3542   10.4985   18.9737 H       1  UNL1        0.0000
     27 C          13.2504    9.2646   16.3089 C.cat   1  UNL1        0.0000
     28 C          11.5644    7.5988   15.7477 C.3     1  UNL1        0.0000
     29 H          10.8217    8.3014   16.1255 H       1  UNL1        0.0000
     30 H          11.3246    6.5988   16.1138 H       1  UNL1        0.0000
     31 H          11.5214    7.5810   14.6472 H       1  UNL1        0.0000
     32 C          13.8589    6.9120   16.0190 C.3     1  UNL1        0.0000
     33 H          14.8423    7.2701   16.2943 H       1  UNL1        0.0000
     34 H          13.8681    6.6338   14.9614 H       1  UNL1        0.0000
     35 H          13.6107    6.0386   16.6254 H       1  UNL1        0.0000
     36 C          17.1831    8.7896   16.3370 C.3     1  UNL1        0.0000
     37 H          17.8934    8.1142   16.8044 H       1  UNL1        0.0000
     38 H          17.7369    9.6590   15.9977 H       1  UNL1        0.0000
     39 H          16.7854    8.2941   15.4564 H       1  UNL1        0.0000
     40 C          15.6364    7.9630   18.9144 C.3     1  UNL1        0.0000
     41 H          14.6529    7.9930   19.3753 H       1  UNL1        0.0000
     42 H          16.3696    8.1176   19.7004 H       1  UNL1        0.0000
     43 H          15.7811    6.9582   18.5288 H       1  UNL1        0.0000
     44 C          16.3477   10.9108   18.4226 C.3     1  UNL1        0.0000
     45 H          16.1960   11.7773   17.7871 H       1  UNL1        0.0000
     46 H          17.4023   10.8662   18.6754 H       1  UNL1        0.0000
     47 H          15.8045   11.0811   19.3478 H       1  UNL1        0.0000
@<TRIPOS>BOND
     1    17    16    1
     2    15    14    1
     3    31    28    1
     4    16    14   ar
     5    16     7   ar
     6    14    12   ar
     7    34    32    1
     8     1     7    1
     9     1    18    1
    10    39    36    1
    11     7     8   ar
    12    12    13    1
    13    12    10   ar
    14    28    30    1
    15    28    29    1
    16    28     5    1
    17     3    18    1
    18     3    27    1
    19    38    36    1
    20    32     5    1
    21    32    33    1
    22    32    35    1
    23     5    27    1
    24     8    10   ar
    25     8     9    1
    26    18     2    1
    27    27     4    2
    28    10    11    1
    29    36    37    1
    30    36     6    1
    31     4     6    1
    32    20    19    1
    33     6    44    1
    34     6    40    1
    35     2    19    1
    36     2    23    1
    37    45    44    1
    38    19    22    1
    39    19    21    1
    40    24    23    1
    41    44    46    1
    42    44    47    1
    43    43    40    1
    44    23    26    1
    45    23    25    1
    46    40    41    1
    47    40    42    1
