@<TRIPOS>MOLECULE
1,4
 50 53 0 0 0
SMALL
GASTEIGER

@<TRIPOS>ATOM
      1 N           3.9383    4.7455    1.4934 N.3     1  UNL1        0.0000
      2 N           6.0755    6.2187    0.9880 N.pl3   1  UNL1        0.0000
      3 C           4.0549    5.1696    2.7738 C.3     1  UNL1        0.0000
      4 N           2.9477    4.7869    3.4249 N.3     1  UNL1        0.0000
      5 P           5.2508    4.9280    0.4869 P.3     1  UNL1        0.0000
      6 C           5.1732    5.9055    3.2608 C.ar    1  UNL1        0.0000
      7 C           6.0573    6.5003    2.3041 C.ar    1  UNL1        0.0000
      8 C           6.9822    7.4584    2.7758 C.ar    1  UNL1        0.0000
      9 C           7.1360    7.6963    4.1131 C.ar    1  UNL1        0.0000
     10 C           6.3716    6.9933    5.0550 C.ar    1  UNL1        0.0000
     11 C           5.4027    6.1254    4.6295 C.ar    1  UNL1        0.0000
     12 C           4.6443    5.1480   -1.1931 C.ar    1  UNL1        0.0000
     13 C           5.4601    4.7943   -2.2609 C.ar    1  UNL1        0.0000
     14 C           5.0135    4.9874   -3.5555 C.ar    1  UNL1        0.0000
     15 C           3.7577    5.5294   -3.7809 C.ar    1  UNL1        0.0000
     16 C           2.9512    5.8930   -2.7143 C.ar    1  UNL1        0.0000
     17 C           3.3940    5.7107   -1.4163 C.ar    1  UNL1        0.0000
     18 C           6.2039    3.3791    0.5819 C.ar    1  UNL1        0.0000
     19 C           5.8185    2.2493   -0.1323 C.ar    1  UNL1        0.0000
     20 C           6.5048    1.0626    0.0487 C.ar    1  UNL1        0.0000
     21 C           7.5690    1.0004    0.9345 C.ar    1  UNL1        0.0000
     22 C           7.9578    2.1280    1.6386 C.ar    1  UNL1        0.0000
     23 C           7.2752    3.3181    1.4654 C.ar    1  UNL1        0.0000
     24 SI          2.1764    5.3574    4.9213 Si      1  UNL1        0.0000
     25 C           2.5242    7.2203    5.1803 C.3     1  UNL1        0.0000
     26 C           2.7587    4.1777    6.3131 C.3     1  UNL1        0.0000
     27 C           0.3232    5.0984    4.5795 C.3     1  UNL1        0.0000
     28 H           7.6002    7.9481    2.0397 H       1  UNL1        0.0000
     29 H           7.8749    8.4077    4.4516 H       1  UNL1        0.0000
     30 H           6.5486    7.1397    6.1091 H       1  UNL1        0.0000
     31 H           4.8220    5.5606    5.3396 H       1  UNL1        0.0000
     32 H           6.4361    4.3702   -2.0680 H       1  UNL1        0.0000
     33 H           5.6419    4.7116   -4.3894 H       1  UNL1        0.0000
     34 H           3.4077    5.6701   -4.7928 H       1  UNL1        0.0000
     35 H           1.9750    6.3181   -2.8914 H       1  UNL1        0.0000
     36 H           2.7718    5.9976   -0.5778 H       1  UNL1        0.0000
     37 H           4.9859    2.3036   -0.8194 H       1  UNL1        0.0000
     38 H           6.2039    0.1817   -0.4983 H       1  UNL1        0.0000
     39 H           8.0962    0.0688    1.0771 H       1  UNL1        0.0000
     40 H           8.7882    2.0786    2.3273 H       1  UNL1        0.0000
     41 H           7.5695    4.2083    2.0053 H       1  UNL1        0.0000
     42 H           3.2439    7.4041    5.9704 H       1  UNL1        0.0000
     43 H           1.6056    7.7288    5.4551 H       1  UNL1        0.0000
     44 H           2.9019    7.6887    4.2756 H       1  UNL1        0.0000
     45 H           1.9147    3.8857    6.9297 H       1  UNL1        0.0000
     46 H           3.4978    4.6209    6.9742 H       1  UNL1        0.0000
     47 H           3.1844    3.2691    5.8890 H       1  UNL1        0.0000
     48 H          -0.2712    5.2214    5.4794 H       1  UNL1        0.0000
     49 H           0.1497    4.0933    4.1957 H       1  UNL1        0.0000
     50 H          -0.0515    5.8009    3.8379 H       1  UNL1        0.0000
@<TRIPOS>BOND
     1    34    15    1
     2    33    14    1
     3    15    14   ar
     4    15    16   ar
     5    14    13   ar
     6    35    16    1
     7    16    17   ar
     8    13    32    1
     9    13    12   ar
    10    17    12   ar
    11    17    36    1
    12    12     5    1
    13    37    19    1
    14    38    20    1
    15    19    20   ar
    16    19    18   ar
    17    20    21   ar
    18     5    18    1
    19     5     2    1
    20     5     1    1
    21    18    23   ar
    22    21    39    1
    23    21    22   ar
    24     2     7    1
    25    23    22   ar
    26    23    41    1
    27     1     3    1
    28    22    40    1
    29    28     8    1
    30     7     8   ar
    31     7     6   ar
    32     3     6    1
    33     3     4    1
    34     8     9   ar
    35     6    11   ar
    36     4    24    1
    37    50    27    1
    38     9    29    1
    39     9    10   ar
    40    49    27    1
    41    44    25    1
    42    27    24    1
    43    27    48    1
    44    11    10   ar
    45    11    31    1
    46    24    25    1
    47    24    26    1
    48    10    30    1
    49    25    43    1
    50    25    42    1
    51    47    26    1
    52    26    45    1
    53    26    46    1
