@<TRIPOS>MOLECULE
1,2
 30 31 0 0 0
SMALL
GASTEIGER

@<TRIPOS>ATOM
      1 N           4.3956    5.7149    7.7667 N.pl3   1  UNL1       -0.2490
      2 N           6.8785    4.6839    8.4394 N.pl3   1  UNL1       -0.2490
      3 C           5.4584    5.6814    6.7673 C.3     1  UNL1        0.0488
      4 H           5.9980    6.6414    6.8116 H       1  UNL1        0.0498
      5 H           5.0465    5.5788    5.7530 H       1  UNL1        0.0498
      6 C           6.4778    4.5677    7.0479 C.3     1  UNL1        0.0488
      7 H           6.0328    3.5739    6.8483 H       1  UNL1        0.0498
      8 H           7.3405    4.6987    6.3751 H       1  UNL1        0.0498
      9 C           3.2135    5.1140    7.3845 C.ar    1  UNL1        0.0478
     10 C           2.0150    5.6038    7.9353 C.ar    1  UNL1       -0.0391
     11 H           2.0792    6.4343    8.6241 H       1  UNL1        0.0637
     12 C           0.7894    5.0825    7.5800 C.ar    1  UNL1       -0.0600
     13 H          -0.1124    5.4920    8.0142 H       1  UNL1        0.0618
     14 C           0.7031    4.0520    6.6560 C.ar    1  UNL1       -0.0616
     15 H          -0.2558    3.6431    6.3772 H       1  UNL1        0.0618
     16 C           1.8676    3.5664    6.0853 C.ar    1  UNL1       -0.0600
     17 H           1.8158    2.7675    5.3585 H       1  UNL1        0.0618
     18 C           3.1008    4.0839    6.4303 C.ar    1  UNL1       -0.0391
     19 H           3.9839    3.6708    5.9640 H       1  UNL1        0.0637
     20 C           8.0441    4.0597    8.7922 C.ar    1  UNL1        0.0478
     21 C           8.7946    3.2141    7.9549 C.ar    1  UNL1       -0.0391
     22 H           8.4376    2.9569    6.9698 H       1  UNL1        0.0637
     23 C           9.9914    2.6761    8.3831 C.ar    1  UNL1       -0.0600
     24 H          10.5426    2.0287    7.7155 H       1  UNL1        0.0618
     25 C          10.4917    2.9490    9.6440 C.ar    1  UNL1       -0.0616
     26 H          11.4345    2.5317    9.9629 H       1  UNL1        0.0618
     27 C           9.7543    3.7602   10.4926 C.ar    1  UNL1       -0.0600
     28 H          10.1187    3.9789   11.4864 H       1  UNL1        0.0618
     29 C           8.5542    4.2937   10.0816 C.ar    1  UNL1       -0.0391
     30 H           7.9697    4.9140   10.7535 H       1  UNL1        0.0637
@<TRIPOS>BOND
     1    17    16    1
     2     5     3    1
     3    19    18    1
     4    16    18   ar
     5    16    14   ar
     6     8     6    1
     7    15    14    1
     8    18     9   ar
     9    14    12   ar
    10     3     4    1
    11     3     6    1
    12     3     1    1
    13     7     6    1
    14    22    21    1
    15     6     2    1
    16     9     1    1
    17     9    10   ar
    18    12    10   ar
    19    12    13    1
    20    24    23    1
    21    10    11    1
    22    21    23   ar
    23    21    20   ar
    24    23    25   ar
    25     2    20    1
    26    20    29   ar
    27    25    26    1
    28    25    27   ar
    29    29    27   ar
    30    29    30    1
    31    27    28    1
