@<TRIPOS>MOLECULE
1,2
 45 45 0 0 0
SMALL
GASTEIGER

@<TRIPOS>ATOM
      1 N           4.3444    7.2006    4.6046 N.3     1  UNL1        0.0000
      2 N           5.8347    8.7894    4.2026 N.3     1  UNL1        0.0000
      3 N           7.8924   10.9295    0.1983 N.3     1  UNL1        0.0000
      4 SI          3.1202    6.0112    4.2459 Si      1  UNL1        0.0000
      5 C           5.3087    7.6492    3.8199 C.3     1  UNL1        0.0000
      6 C           5.7632    6.8869    2.6259 C.ar    1  UNL1        0.0000
      7 C           6.8061    5.9740    2.7249 C.ar    1  UNL1        0.0000
      8 C           7.2224    5.2678    1.6098 C.ar    1  UNL1        0.0000
      9 C           6.6012    5.4674    0.3891 C.ar    1  UNL1        0.0000
     10 C           5.5580    6.3726    0.2854 C.ar    1  UNL1        0.0000
     11 C           5.1400    7.0810    1.3978 C.ar    1  UNL1        0.0000
     12 C           7.0197    9.2882    3.5194 C.3     1  UNL1        0.0000
     13 C           6.7526    9.9680    2.1700 C.3     1  UNL1        0.0000
     14 C           8.0477   10.5323    1.5871 C.3     1  UNL1        0.0000
     15 C           7.0371   12.0889    0.0486 C.3     1  UNL1        0.0000
     16 C           9.1777   11.1534   -0.4298 C.3     1  UNL1        0.0000
     17 C           2.4478    5.3746    5.9142 C.3     1  UNL1        0.0000
     18 C           1.7417    6.7977    3.1801 C.3     1  UNL1        0.0000
     19 C           3.8265    4.4804    3.3272 C.3     1  UNL1        0.0000
     20 H           7.2857    5.8105    3.6804 H       1  UNL1        0.0000
     21 H           8.0325    4.5584    1.6953 H       1  UNL1        0.0000
     22 H           6.9270    4.9157   -0.4800 H       1  UNL1        0.0000
     23 H           5.0686    6.5277   -0.6645 H       1  UNL1        0.0000
     24 H           4.3222    7.7836    1.3236 H       1  UNL1        0.0000
     25 H           7.5021   10.0164    4.1799 H       1  UNL1        0.0000
     26 H           7.7291    8.4640    3.3537 H       1  UNL1        0.0000
     27 H           6.0263   10.7657    2.3104 H       1  UNL1        0.0000
     28 H           6.3461    9.2463    1.4615 H       1  UNL1        0.0000
     29 H           8.4038   11.3730    2.2131 H       1  UNL1        0.0000
     30 H           8.8113    9.7492    1.6163 H       1  UNL1        0.0000
     31 H           6.9694   12.3431   -1.0079 H       1  UNL1        0.0000
     32 H           7.4158   12.9671    0.5966 H       1  UNL1        0.0000
     33 H           6.0377   11.8552    0.4070 H       1  UNL1        0.0000
     34 H           9.0225   11.3933   -1.4805 H       1  UNL1        0.0000
     35 H           9.7449   11.9752    0.0365 H       1  UNL1        0.0000
     36 H           9.7720   10.2427   -0.3681 H       1  UNL1        0.0000
     37 H           1.4769    4.9128    5.7670 H       1  UNL1        0.0000
     38 H           2.3214    6.2043    6.6017 H       1  UNL1        0.0000
     39 H           3.0940    4.6318    6.3725 H       1  UNL1        0.0000
     40 H           0.9111    6.1109    3.0491 H       1  UNL1        0.0000
     41 H           1.3561    7.6925    3.6648 H       1  UNL1        0.0000
     42 H           2.0919    7.0784    2.1897 H       1  UNL1        0.0000
     43 H           3.1170    3.6630    3.3946 H       1  UNL1        0.0000
     44 H           4.7621    4.1370    3.7572 H       1  UNL1        0.0000
     45 H           4.0022    4.6730    2.2749 H       1  UNL1        0.0000
@<TRIPOS>BOND
     1    34    16    1
     2    31    15    1
     3    23    10    1
     4    22     9    1
     5    16    36    1
     6    16    35    1
     7    16     3    1
     8    15     3    1
     9    15    33    1
    10    15    32    1
    11     3    14    1
    12    10     9   ar
    13    10    11   ar
    14     9     8   ar
    15    24    11    1
    16    11     6   ar
    17    28    13    1
    18    14    30    1
    19    14    13    1
    20    14    29    1
    21     8    21    1
    22     8     7   ar
    23    13    27    1
    24    13    12    1
    25    42    18    1
    26    45    19    1
    27     6     7   ar
    28     6     5    1
    29     7    20    1
    30    40    18    1
    31    18    41    1
    32    18     4    1
    33    19    43    1
    34    19    44    1
    35    19     4    1
    36    26    12    1
    37    12    25    1
    38    12     2    1
    39     5     2    1
    40     5     1    1
    41     4     1    1
    42     4    17    1
    43    37    17    1
    44    17    39    1
    45    17    38    1
