@<TRIPOS>MOLECULE
1,4
 33 33 0 0 0
SMALL
GASTEIGER

@<TRIPOS>ATOM
      1 N          -0.0510   -0.6114    8.9480 N.3     1  UNL1       -0.3029
      2 C          -0.2401   -0.2400   10.3565 C.3     1  UNL1        0.0114
      3 C          -0.4717    1.2650   10.5328 C.3     1  UNL1        0.0114
      4 N           0.5516    2.0934    9.8916 N.3     1  UNL1       -0.3029
      5 C           1.8834    1.8853   10.4692 C.3     1  UNL1        0.0114
      6 C           2.9376    1.6476    9.3840 C.3     1  UNL1        0.0114
      7 N           2.5600    0.6140    8.4188 N.3     1  UNL1       -0.3029
      8 C           2.4681   -0.7096    9.0481 C.3     1  UNL1        0.0114
      9 C           1.1468   -1.4309    8.7462 C.3     1  UNL1        0.0114
     10 C          -1.2119   -1.3627    8.4699 C.3     1  UNL1       -0.0127
     11 C           0.1752    3.5003   10.0127 C.3     1  UNL1       -0.0127
     12 C           3.5468    0.6055    7.3387 C.3     1  UNL1       -0.0127
     13 H          -1.1090   -0.7584   10.7805 H       1  UNL1        0.0439
     14 H           0.6219   -0.5608   10.9457 H       1  UNL1        0.0439
     15 H          -0.5373    1.4800   11.6148 H       1  UNL1        0.0439
     16 H          -1.4269    1.5277   10.0699 H       1  UNL1        0.0439
     17 H           2.1976    2.7600   11.0531 H       1  UNL1        0.0439
     18 H           1.8672    1.0454   11.1660 H       1  UNL1        0.0439
     19 H           3.8977    1.4037    9.8738 H       1  UNL1        0.0439
     20 H           3.0710    2.5753    8.8239 H       1  UNL1        0.0439
     21 H           2.5977   -0.6161   10.1290 H       1  UNL1        0.0439
     22 H           3.2799   -1.3604    8.6995 H       1  UNL1        0.0439
     23 H           1.1094   -2.3437    9.3680 H       1  UNL1        0.0439
     24 H           1.1452   -1.7380    7.6986 H       1  UNL1        0.0439
     25 H          -1.1275   -1.5210    7.3953 H       1  UNL1        0.0391
     26 H          -2.1191   -0.7951    8.6672 H       1  UNL1        0.0391
     27 H          -1.2933   -2.3394    8.9718 H       1  UNL1        0.0391
     28 H           0.9474    4.1216    9.5640 H       1  UNL1        0.0391
     29 H           0.0527    3.7944   11.0672 H       1  UNL1        0.0391
     30 H          -0.7601    3.6709    9.4827 H       1  UNL1        0.0391
     31 H           3.3233   -0.1982    6.6416 H       1  UNL1        0.0391
     32 H           3.5032    1.5496    6.7962 H       1  UNL1        0.0391
     33 H           4.5674    0.4610    7.7259 H       1  UNL1        0.0391
@<TRIPOS>BOND
     1    31    12    1
     2    32    12    1
     3    12    33    1
     4    12     7    1
     5    25    10    1
     6    24     9    1
     7     7     8    1
     8     7     6    1
     9    10    26    1
    10    10     1    1
    11    10    27    1
    12    22     8    1
    13     9     1    1
    14     9     8    1
    15     9    23    1
    16    20     6    1
    17     1     2    1
    18     8    21    1
    19     6    19    1
    20     6     5    1
    21    30    11    1
    22    28    11    1
    23     4    11    1
    24     4     5    1
    25     4     3    1
    26    11    29    1
    27    16     3    1
    28     2     3    1
    29     2    13    1
    30     2    14    1
    31     5    17    1
    32     5    18    1
    33     3    15    1
