@<TRIPOS>MOLECULE
1,2
 44 45 0 0 0
SMALL
GASTEIGER

@<TRIPOS>ATOM
      1 N           1.5897   11.8256   -7.8229 N.pl3   1  UNL1       -0.2391
      2 N           3.7447   12.8484   -6.7764 N.pl3   1  UNL1       -0.2391
      3 C           0.5086   11.2356   -8.3268 C.3     1  UNL1        0.0850
      4 H           0.0586   10.4475   -7.7337 H       1  UNL1        0.0584
      5 C          -0.0458   11.5735   -9.5467 C.2     1  UNL1       -0.0563
      6 H          -0.9207   11.0427   -9.8852 H       1  UNL1        0.0595
      7 C           0.5294   12.5858  -10.3183 C.2     1  UNL1       -0.0422
      8 C           1.6545   13.1967   -9.7847 C.2     1  UNL1       -0.0338
      9 H           2.1474   13.9811  -10.3305 H       1  UNL1        0.0640
     10 C           2.1649   12.8019   -8.5458 C.2     1  UNL1        0.0713
     11 C           4.8849   13.2790   -6.2355 C.3     1  UNL1        0.0850
     12 H           5.1765   12.8204   -5.2980 H       1  UNL1        0.0584
     13 C           5.6696   14.2651   -6.7968 C.2     1  UNL1       -0.0563
     14 H           6.5696   14.5666   -6.2869 H       1  UNL1        0.0595
     15 C           5.2865   14.8685   -7.9984 C.2     1  UNL1       -0.0422
     16 C           4.1274   14.3790   -8.5817 C.2     1  UNL1       -0.0338
     17 H           3.7906   14.7801   -9.5211 H       1  UNL1        0.0640
     18 C           3.3786   13.3798   -7.9578 C.2     1  UNL1        0.0713
     19 C          -0.0723   12.9674  -11.6566 C.3     1  UNL1       -0.0128
     20 C          -0.0363   11.7403  -12.5777 C.3     1  UNL1       -0.0561
     21 H           0.9893   11.4063  -12.7180 H       1  UNL1        0.0238
     22 H          -0.4543   11.9936  -13.5493 H       1  UNL1        0.0238
     23 H          -0.6125   10.9175  -12.1640 H       1  UNL1        0.0238
     24 C           0.6875   14.1069  -12.3401 C.3     1  UNL1       -0.0561
     25 H           1.7175   13.8234  -12.5428 H       1  UNL1        0.0238
     26 H           0.6737   15.0098  -11.7331 H       1  UNL1        0.0238
     27 H           0.2118   14.3372  -13.2906 H       1  UNL1        0.0238
     28 C          -1.5249   13.4145  -11.4364 C.3     1  UNL1       -0.0561
     29 H          -2.1270   12.6160  -11.0125 H       1  UNL1        0.0238
     30 H          -1.9695   13.7078  -12.3843 H       1  UNL1        0.0238
     31 H          -1.5612   14.2670  -10.7611 H       1  UNL1        0.0238
     32 C           6.0917   16.0152   -8.5777 C.3     1  UNL1       -0.0128
     33 C           5.5361   16.5065   -9.9169 C.3     1  UNL1       -0.0561
     34 H           4.5234   16.8892   -9.8092 H       1  UNL1        0.0238
     35 H           5.5447   15.7097  -10.6569 H       1  UNL1        0.0238
     36 H           6.1591   17.3163  -10.2898 H       1  UNL1        0.0238
     37 C           6.0543   17.1799   -7.5764 C.3     1  UNL1       -0.0561
     38 H           6.4880   16.8926   -6.6227 H       1  UNL1        0.0238
     39 H           5.0288   17.5008   -7.4040 H       1  UNL1        0.0238
     40 H           6.6174   18.0238   -7.9677 H       1  UNL1        0.0238
     41 C           7.5401   15.5621   -8.7931 C.3     1  UNL1       -0.0561
     42 H           8.0061   15.2602   -7.8602 H       1  UNL1        0.0238
     43 H           8.1234   16.3750   -9.2198 H       1  UNL1        0.0238
     44 H           7.5704   14.7144   -9.4727 H       1  UNL1        0.0238
@<TRIPOS>BOND
     1    22    20    1
     2    27    24    1
     3    21    20    1
     4    20    23    1
     5    20    19    1
     6    25    24    1
     7    30    28    1
     8    24    26    1
     9    24    19    1
    10    19    28    1
    11    19     7    1
    12    28    29    1
    13    28    31    1
    14    35    33    1
    15     9     8    1
    16     7     8    1
    17     7     5    2
    18    36    33    1
    19    33    34    1
    20    33    32    1
    21     6     5    1
    22     8    10    2
    23     5     3    1
    24    17    16    1
    25    44    41    1
    26    43    41    1
    27    41    32    1
    28    41    42    1
    29    16    15    1
    30    16    18    2
    31    32    15    1
    32    32    37    1
    33    10    18    1
    34    10     1    1
    35     3     1    1
    36     3     4    1
    37    15    13    2
    38    40    37    1
    39    18     2    1
    40    37    39    1
    41    37    38    1
    42    13    14    1
    43    13    11    1
    44     2    11    1
    45    11    12    1
