@<TRIPOS>MOLECULE
1,3
 23 22 0 0 0
SMALL
GASTEIGER

@<TRIPOS>ATOM
      1 N           2.5301    2.4199    3.8819 N.3     1  UNL1        0.0000
      2 C           3.3287    1.4195    4.5423 C.3     1  UNL1        0.0000
      3 N           1.3377    2.8371    4.4816 N.3     1  UNL1        0.0000
      4 SI          1.4522    4.5242    5.0924 Si      1  UNL1        0.0000
      5 C           2.7892    4.5419    6.4627 C.3     1  UNL1        0.0000
      6 C           1.9969    5.5983    3.6223 C.3     1  UNL1        0.0000
      7 C          -0.2570    5.0290    5.7627 C.3     1  UNL1        0.0000
      8 C           0.6014    1.9156    5.3455 C.3     1  UNL1        0.0000
      9 H           4.3119    1.4079    4.0678 H       1  UNL1        0.0000
     10 H           2.8930    0.4106    4.4596 H       1  UNL1        0.0000
     11 H           3.4575    1.6633    5.6034 H       1  UNL1        0.0000
     12 H           2.5286    3.9012    7.3002 H       1  UNL1        0.0000
     13 H           3.7559    4.2222    6.0842 H       1  UNL1        0.0000
     14 H           2.9074    5.5464    6.8530 H       1  UNL1        0.0000
     15 H           2.9320    5.2448    3.1929 H       1  UNL1        0.0000
     16 H           1.2288    5.5870    2.8512 H       1  UNL1        0.0000
     17 H           2.1410    6.6287    3.9312 H       1  UNL1        0.0000
     18 H          -0.5277    4.4890    6.6649 H       1  UNL1        0.0000
     19 H          -1.0257    4.8498    5.0159 H       1  UNL1        0.0000
     20 H          -0.2687    6.0868    6.0020 H       1  UNL1        0.0000
     21 H          -0.4517    2.2020    5.3176 H       1  UNL1        0.0000
     22 H           0.9609    1.9683    6.3785 H       1  UNL1        0.0000
     23 H           0.6853    0.8867    4.9933 H       1  UNL1        0.0000
@<TRIPOS>BOND
     1    16     6    1
     2    15     6    1
     3     6    17    1
     4     6     4    1
     5     1     3    1
     6     1     2    1
     7     9     2    1
     8    10     2    1
     9     3     4    1
    10     3     8    1
    11     2    11    1
    12    23     8    1
    13    19     7    1
    14     4     7    1
    15     4     5    1
    16    21     8    1
    17     8    22    1
    18     7    20    1
    19     7    18    1
    20    13     5    1
    21     5    14    1
    22     5    12    1
