@<TRIPOS>MOLECULE
2,3
 27 27 0 0 0
SMALL
GASTEIGER

@<TRIPOS>ATOM
      1 SI          8.3736    5.2174   12.2153 Si      1  UNL1        0.0000
      2 N           9.4862    4.7391   13.4459 N.2     1  UNL1        0.0000
      3 N          11.2997    4.8405   14.7161 N.ar    1  UNL1        0.0000
      4 C          10.6879    5.3002   13.5953 C.ar    1  UNL1        0.0000
      5 C          11.3499    6.2370   12.7769 C.ar    1  UNL1        0.0000
      6 H          10.8663    6.5907   11.8821 H       1  UNL1        0.0000
      7 C          12.6025    6.6860   13.1297 C.ar    1  UNL1        0.0000
      8 C          13.1919    6.1913   14.3035 C.ar    1  UNL1        0.0000
      9 H          14.1708    6.5263   14.6066 H       1  UNL1        0.0000
     10 C          12.5044    5.2702   15.0619 C.ar    1  UNL1        0.0000
     11 H          12.9183    4.8611   15.9755 H       1  UNL1        0.0000
     12 C          13.3392    7.6831   12.2898 C.3     1  UNL1        0.0000
     13 H          14.2976    7.2744   11.9732 H       1  UNL1        0.0000
     14 H          13.5380    8.5859   12.8656 H       1  UNL1        0.0000
     15 H          12.7635    7.9507   11.4081 H       1  UNL1        0.0000
     16 C           8.9619    4.6222   10.4884 C.3     1  UNL1        0.0000
     17 H          10.0184    4.8173   10.3296 H       1  UNL1        0.0000
     18 H           8.4105    5.1255    9.7001 H       1  UNL1        0.0000
     19 H           8.8081    3.5549   10.3589 H       1  UNL1        0.0000
     20 C           8.1920    7.1329   12.1855 C.3     1  UNL1        0.0000
     21 H           8.7386    7.5983   13.0012 H       1  UNL1        0.0000
     22 H           7.1521    7.4331   12.2745 H       1  UNL1        0.0000
     23 H           8.5677    7.5558   11.2584 H       1  UNL1        0.0000
     24 C           6.6246    4.5155   12.4915 C.3     1  UNL1        0.0000
     25 H           6.2015    4.8189   13.4431 H       1  UNL1        0.0000
     26 H           6.6051    3.4337   12.4455 H       1  UNL1        0.0000
     27 H           5.9672    4.8849   11.7104 H       1  UNL1        0.0000
@<TRIPOS>BOND
     1    18    16    1
     2    17    16    1
     3    19    16    1
     4    16     1    1
     5    23    20    1
     6    15    12    1
     7    27    24    1
     8     6     5    1
     9    13    12    1
    10    20     1    1
    11    20    22    1
    12    20    21    1
    13     1    24    1
    14     1     2    1
    15    12    14    1
    16    12     7    1
    17    26    24    1
    18    24    25    1
    19     5     7   ar
    20     5     4   ar
    21     7     8   ar
    22     2     4    2
    23     4     3   ar
    24     8     9    1
    25     8    10   ar
    26     3    10   ar
    27    10    11    1
