@<TRIPOS>MOLECULE
2,3
 27 27 0 0 0
SMALL
GASTEIGER

@<TRIPOS>ATOM
      1 SI         11.6168    3.6765   18.5930 Si      1  UNL1        0.0000
      2 N          10.4777    4.0461   17.3492 N.2     1  UNL1        0.0000
      3 N           8.9941    5.2511   16.2268 N.ar    1  UNL1        0.0000
      4 C           9.6874    5.1208   17.3861 C.ar    1  UNL1        0.0000
      5 C           9.4949    6.0590   18.4199 C.ar    1  UNL1        0.0000
      6 H          10.0380    5.9456   19.3428 H       1  UNL1        0.0000
      7 C           8.6168    7.1035   18.2384 C.ar    1  UNL1        0.0000
      8 C           7.9306    7.2051   17.0182 C.ar    1  UNL1        0.0000
      9 H           7.2389    8.0139   16.8459 H       1  UNL1        0.0000
     10 C           8.1500    6.2561   16.0448 C.ar    1  UNL1        0.0000
     11 H           7.6440    6.2934   15.0878 H       1  UNL1        0.0000
     12 C           8.3856    8.1238   19.3097 C.3     1  UNL1        0.0000
     13 H           7.3256    8.1839   19.5513 H       1  UNL1        0.0000
     14 H           8.7034    9.1072   18.9657 H       1  UNL1        0.0000
     15 H           8.9384    7.8744   20.2114 H       1  UNL1        0.0000
     16 C          12.8452    2.3129   18.0839 C.3     1  UNL1        0.0000
     17 H          12.3526    1.3680   17.8912 H       1  UNL1        0.0000
     18 H          13.5505    2.1515   18.8933 H       1  UNL1        0.0000
     19 H          13.4179    2.5790   17.2017 H       1  UNL1        0.0000
     20 C          12.6717    5.2294   19.0154 C.3     1  UNL1        0.0000
     21 H          12.4842    5.5775   20.0269 H       1  UNL1        0.0000
     22 H          12.4551    6.0539   18.3416 H       1  UNL1        0.0000
     23 H          13.7344    5.0173   18.9430 H       1  UNL1        0.0000
     24 C          10.7274    3.0779   20.1847 C.3     1  UNL1        0.0000
     25 H           9.8833    3.7113   20.4412 H       1  UNL1        0.0000
     26 H          11.4098    3.0783   21.0292 H       1  UNL1        0.0000
     27 H          10.3493    2.0656   20.0757 H       1  UNL1        0.0000
@<TRIPOS>BOND
     1    11    10    1
     2    10     3   ar
     3    10     8   ar
     4     3     4   ar
     5     9     8    1
     6     8     7   ar
     7    19    16    1
     8     2     4    2
     9     2     1    1
    10     4     5   ar
    11    17    16    1
    12    16     1    1
    13    16    18    1
    14     7     5   ar
    15     7    12    1
    16    22    20    1
    17     5     6    1
    18     1    20    1
    19     1    24    1
    20    23    20    1
    21    14    12    1
    22    20    21    1
    23    12    13    1
    24    12    15    1
    25    27    24    1
    26    24    25    1
    27    24    26    1
