@<TRIPOS>MOLECULE
2,3
 38 37 0 0 0
SMALL
GASTEIGER

@<TRIPOS>ATOM
      1 N           7.0392    5.9354   11.1265 N.3     1  UNL1       -0.2668
      2 N           5.3425    7.5246   11.7551 N.3     1  UNL1       -0.1963
      3 N           7.4758    8.0136   12.2041 N.3     1  UNL1       -0.1963
      4 C           6.6130    7.1425   11.6882 C.3     1  UNL1        0.2088
      5 C           7.6595    4.9396   11.9704 C.3     1  UNL1       -0.0009
      6 H           8.1633    5.4533   12.7909 H       1  UNL1        0.0425
      7 H           8.4142    4.3976   11.3904 H       1  UNL1        0.0425
      8 C           6.6594    3.9401   12.5620 C.3     1  UNL1       -0.0523
      9 H           5.9167    4.4618   13.1607 H       1  UNL1        0.0242
     10 H           7.1825    3.2287   13.1965 H       1  UNL1        0.0242
     11 H           6.1482    3.3876   11.7768 H       1  UNL1        0.0242
     12 C           6.6896    5.5713    9.7735 C.3     1  UNL1       -0.0009
     13 H           5.9373    6.2736    9.4137 H       1  UNL1        0.0425
     14 H           6.2618    4.5613    9.7417 H       1  UNL1        0.0425
     15 C           7.9014    5.6329    8.8373 C.3     1  UNL1       -0.0523
     16 H           8.3288    6.6326    8.8429 H       1  UNL1        0.0242
     17 H           7.5978    5.3859    7.8230 H       1  UNL1        0.0242
     18 H           8.6686    4.9277    9.1475 H       1  UNL1        0.0242
     19 C           4.2408    6.6044   11.5292 C.3     1  UNL1        0.0232
     20 H           4.6147    5.5945   11.3143 H       1  UNL1        0.0472
     21 C           3.3850    6.5506   12.7983 C.3     1  UNL1       -0.0483
     22 H           3.9505    6.1186   13.6192 H       1  UNL1        0.0245
     23 H           2.4917    5.9513   12.6330 H       1  UNL1        0.0245
     24 H           3.0901    7.5651   13.0814 H       1  UNL1        0.0245
     25 C           3.3721    7.0778   10.3579 C.3     1  UNL1       -0.0483
     26 H           2.9007    8.0214   10.6198 H       1  UNL1        0.0245
     27 H           2.5987    6.3436   10.1435 H       1  UNL1        0.0245
     28 H           3.9679    7.2271    9.4599 H       1  UNL1        0.0245
     29 C           8.8956    7.9332   11.8943 C.3     1  UNL1        0.0232
     30 H           9.1049    7.0283   11.3067 H       1  UNL1        0.0472
     31 C           9.7284    7.9048   13.1782 C.3     1  UNL1       -0.0483
     32 H           9.5729    8.8273   13.7348 H       1  UNL1        0.0245
     33 H          10.7852    7.8125   12.9378 H       1  UNL1        0.0245
     34 H           9.4429    7.0651   13.8084 H       1  UNL1        0.0245
     35 C           9.2979    9.1522   11.0544 C.3     1  UNL1       -0.0483
     36 H           8.7213    9.1819   10.1311 H       1  UNL1        0.0245
     37 H          10.3551    9.1034   10.8019 H       1  UNL1        0.0245
     38 H           9.1121   10.0693   11.6144 H       1  UNL1        0.0245
@<TRIPOS>BOND
     1    17    15    1
     2    15    16    1
     3    15    18    1
     4    15    12    1
     5    13    12    1
     6    28    25    1
     7    14    12    1
     8    12     1    1
     9    36    35    1
    10    27    25    1
    11    25    26    1
    12    25    19    1
    13    37    35    1
    14    35    38    1
    15    35    29    1
    16     1     4    1
    17     1     5    1
    18    30    29    1
    19    20    19    1
    20     7     5    1
    21    19     2    1
    22    19    21    1
    23     4     2    1
    24     4     3    1
    25    11     8    1
    26    29     3    1
    27    29    31    1
    28     5     8    1
    29     5     6    1
    30     8     9    1
    31     8    10    1
    32    23    21    1
    33    21    24    1
    34    21    22    1
    35    33    31    1
    36    31    32    1
    37    31    34    1
