@<TRIPOS>MOLECULE
1,2
 20 21 0 0 0
SMALL
GASTEIGER

@<TRIPOS>ATOM
      1 N           3.6303    1.9629   -1.7687 N.pl3   1  UNL1       -0.2427
      2 N           4.2374    4.3343   -1.8373 N.pl3   1  UNL1       -0.2387
      3 C           3.3050    0.6933   -1.4576 C.3     1  UNL1        0.0844
      4 C           2.1228    0.1035   -1.8139 C.2     1  UNL1       -0.0600
      5 C           1.1750    0.8445   -2.5374 C.2     1  UNL1       -0.0623
      6 C           1.4471    2.1639   -2.7965 C.2     1  UNL1       -0.0408
      7 C           2.6648    2.7202   -2.3803 C.2     1  UNL1        0.0578
      8 C           3.0180    4.1011   -2.4195 C.3     1  UNL1        0.1419
      9 C           2.2082    5.1499   -2.8775 C.2     1  UNL1       -0.0507
     10 C           2.6043    6.4500   -2.6915 C.2     1  UNL1       -0.0620
     11 C           3.8022    6.6833   -1.9976 C.2     1  UNL1       -0.0466
     12 C           4.5635    5.6191   -1.5972 C.2     1  UNL1        0.0129
     13 H           4.0562    0.1501   -0.8971 H       1  UNL1        0.0584
     14 H           1.9284   -0.9227   -1.5467 H       1  UNL1        0.0592
     15 H           0.2507    0.3913   -2.8579 H       1  UNL1        0.0616
     16 H           0.7318    2.7833   -3.3139 H       1  UNL1        0.0634
     17 H           1.2752    4.9222   -3.3682 H       1  UNL1        0.0598
     18 H           2.0042    7.2730   -3.0451 H       1  UNL1        0.0616
     19 H           4.1265    7.6897   -1.7872 H       1  UNL1        0.0630
     20 H           5.4908    5.7652   -1.0565 H       1  UNL1        0.0798
@<TRIPOS>BOND
     1    17     9    1
     2    16     6    1
     3    18    10    1
     4     9    10    2
     5     9     8    1
     6    15     5    1
     7     6     5    1
     8     6     7    2
     9    10    11    1
    10     5     4    2
    11     8     7    1
    12     8     2    1
    13     7     1    1
    14    11    19    1
    15    11    12    2
    16     2    12    1
    17     4    14    1
    18     4     3    1
    19     1     3    1
    20    12    20    1
    21     3    13    1
