@<TRIPOS>MOLECULE
1,2
 24 26 0 0 0
SMALL
GASTEIGER

@<TRIPOS>ATOM
      1 N           2.9114    2.1671    2.7116 N.ar    1  UNL1       -0.2489
      2 N           3.6768    0.4339    4.5766 N.pl3   1  UNL1       -0.2385
      3 C           2.7746    3.1299    1.7697 C.ar    1  UNL1        0.0714
      4 C           1.7288    3.3689    0.8740 C.ar    1  UNL1       -0.0357
      5 C           1.8471    4.4243    0.0044 C.ar    1  UNL1       -0.0597
      6 C           2.9796    5.2555    0.0027 C.ar    1  UNL1       -0.0611
      7 C           4.0169    5.0428    0.8728 C.ar    1  UNL1       -0.0525
      8 C           3.9311    3.9712    1.7701 C.ar    1  UNL1        0.0021
      9 C           4.7880    3.4613    2.7606 C.ar    1  UNL1       -0.0286
     10 C           4.1348    2.3611    3.3043 C.ar    1  UNL1        0.0744
     11 C           4.5441    1.4363    4.3158 C.3     1  UNL1        0.1447
     12 C           5.7642    1.5405    4.9977 C.2     1  UNL1       -0.0505
     13 C           6.0915    0.6039    5.9504 C.2     1  UNL1       -0.0619
     14 C           5.1929   -0.4279    6.2066 C.2     1  UNL1       -0.0466
     15 C           4.0116   -0.4637    5.4937 C.2     1  UNL1        0.0129
     16 H           0.8586    2.7305    0.8806 H       1  UNL1        0.0639
     17 H           1.0529    4.6280   -0.6998 H       1  UNL1        0.0618
     18 H           3.0248    6.0752   -0.7005 H       1  UNL1        0.0618
     19 H           4.8888    5.6819    0.8736 H       1  UNL1        0.0624
     20 H           5.7519    3.8434    3.0380 H       1  UNL1        0.0643
     21 H           6.4284    2.3564    4.7631 H       1  UNL1        0.0599
     22 H           7.0263    0.6658    6.4880 H       1  UNL1        0.0616
     23 H           5.4037   -1.1886    6.9410 H       1  UNL1        0.0630
     24 H           3.2998   -1.2569    5.6708 H       1  UNL1        0.0798
@<TRIPOS>BOND
     1    18     6    1
     2    17     5    1
     3     6     5   ar
     4     6     7   ar
     5     5     4   ar
     6     7    19    1
     7     7     8   ar
     8     4    16    1
     9     4     3   ar
    10     3     8   ar
    11     3     1   ar
    12     8     9   ar
    13     1    10   ar
    14     9    20    1
    15     9    10   ar
    16    10    11    1
    17    11     2    1
    18    11    12    1
    19     2    15    1
    20    21    12    1
    21    12    13    2
    22    15    24    1
    23    15    14    2
    24    13    14    1
    25    13    22    1
    26    14    23    1
