@<TRIPOS>MOLECULE
2,3
 36 36 0 0 0
SMALL
GASTEIGER

@<TRIPOS>ATOM
      1 SI         -1.9543    1.0839    7.6127 Si      1  UNL1        0.0000
      2 N          -0.6364    3.5981    4.5849 N.pl3   1  UNL1        0.0000
      3 N          -1.1423    2.1234    6.5549 N.3     1  UNL1        0.0000
      4 C          -0.4987    4.3249    3.4730 C.3     1  UNL1        0.0000
      5 H          -1.1699    4.0574    2.6730 H       1  UNL1        0.0000
      6 C           0.4357    5.3302    3.3385 C.2     1  UNL1        0.0000
      7 H           0.5093    5.8838    2.4158 H       1  UNL1        0.0000
      8 C           1.2763    5.6120    4.4097 C.2     1  UNL1        0.0000
      9 H           2.0169    6.3941    4.3432 H       1  UNL1        0.0000
     10 C           1.1391    4.8603    5.5639 C.2     1  UNL1        0.0000
     11 H           1.7695    5.0397    6.4215 H       1  UNL1        0.0000
     12 C           0.1773    3.8617    5.6206 C.2     1  UNL1        0.0000
     13 C          -0.0334    2.9878    6.8191 C.3     1  UNL1        0.0000
     14 H           0.8974    2.4282    7.0038 H       1  UNL1        0.0000
     15 H          -0.1955    3.6178    7.7087 H       1  UNL1        0.0000
     16 C          -2.3494    1.8342    9.3349 C.3     1  UNL1        0.0000
     17 H          -2.8185    2.8079    9.2313 H       1  UNL1        0.0000
     18 H          -1.4461    1.9680    9.9216 H       1  UNL1        0.0000
     19 H          -3.0236    1.2076    9.9087 H       1  UNL1        0.0000
     20 C          -3.5770    0.7803    6.6514 C.3     1  UNL1        0.0000
     21 H          -4.3035    1.5562    6.8620 H       1  UNL1        0.0000
     22 H          -4.0354   -0.1742    6.8799 H       1  UNL1        0.0000
     23 H          -3.3683    0.8061    5.5758 H       1  UNL1        0.0000
     24 C          -1.0506   -0.6102    7.8805 C.3     1  UNL1        0.0000
     25 C          -0.9442   -1.3278    6.5352 C.3     1  UNL1        0.0000
     26 H          -0.3656   -2.2480    6.6288 H       1  UNL1        0.0000
     27 H          -0.4560   -0.6857    5.8041 H       1  UNL1        0.0000
     28 H          -1.9307   -1.5829    6.1565 H       1  UNL1        0.0000
     29 C          -1.8037   -1.5076    8.8619 C.3     1  UNL1        0.0000
     30 H          -1.3078   -2.4747    8.9558 H       1  UNL1        0.0000
     31 H          -2.8229   -1.6821    8.5247 H       1  UNL1        0.0000
     32 H          -1.8432   -1.0516    9.8482 H       1  UNL1        0.0000
     33 C           0.3604   -0.3765    8.4185 C.3     1  UNL1        0.0000
     34 H           0.8745   -1.3240    8.5863 H       1  UNL1        0.0000
     35 H           0.3309    0.1649    9.3616 H       1  UNL1        0.0000
     36 H           0.9445    0.2052    7.7097 H       1  UNL1        0.0000
@<TRIPOS>BOND
     1     7     6    1
     2     5     4    1
     3     6     4    1
     4     6     8    2
     5     4     2    1
     6     9     8    1
     7     8    10    1
     8     2    12    1
     9    10    12    2
    10    10    11    1
    11    23    20    1
    12    12    13    1
    13    27    25    1
    14    28    25    1
    15    25    26    1
    16    25    24    1
    17     3    13    1
    18     3     1    1
    19    20    21    1
    20    20    22    1
    21    20     1    1
    22    13    14    1
    23    13    15    1
    24     1    24    1
    25     1    16    1
    26    36    33    1
    27    24    33    1
    28    24    29    1
    29    33    34    1
    30    33    35    1
    31    31    29    1
    32    29    30    1
    33    29    32    1
    34    17    16    1
    35    16    19    1
    36    16    18    1
