@<TRIPOS>MOLECULE
2,3
 36 36 0 0 0
SMALL
GASTEIGER

@<TRIPOS>ATOM
      1 SI         -1.9278    1.0839    1.9881 Si      1  UNL1        0.0000
      2 N          -3.2457    3.5982    5.0158 N.pl3   1  UNL1        0.0000
      3 N          -2.7398    2.1234    3.0459 N.3     1  UNL1        0.0000
      4 C          -3.3834    4.3249    6.1278 C.3     1  UNL1        0.0000
      5 H          -2.7121    4.0574    6.9277 H       1  UNL1        0.0000
      6 C          -4.3178    5.3302    6.2623 C.2     1  UNL1        0.0000
      7 H          -4.3914    5.8838    7.1850 H       1  UNL1        0.0000
      8 C          -5.1584    5.6119    5.1911 C.2     1  UNL1        0.0000
      9 H          -5.8990    6.3940    5.2576 H       1  UNL1        0.0000
     10 C          -5.0212    4.8603    4.0368 C.2     1  UNL1        0.0000
     11 H          -5.6517    5.0396    3.1793 H       1  UNL1        0.0000
     12 C          -4.0594    3.8617    3.9801 C.2     1  UNL1        0.0000
     13 C          -3.8487    2.9878    2.7817 C.3     1  UNL1        0.0000
     14 H          -4.7794    2.4281    2.5970 H       1  UNL1        0.0000
     15 H          -3.6866    3.6178    1.8921 H       1  UNL1        0.0000
     16 C          -1.5327    1.8342    0.2658 C.3     1  UNL1        0.0000
     17 H          -1.0636    2.8079    0.3694 H       1  UNL1        0.0000
     18 H          -2.4360    1.9681   -0.3208 H       1  UNL1        0.0000
     19 H          -0.8586    1.2075   -0.3080 H       1  UNL1        0.0000
     20 C          -0.3050    0.7802    2.9494 C.3     1  UNL1        0.0000
     21 H           0.4214    1.5562    2.7388 H       1  UNL1        0.0000
     22 H           0.1533   -0.1742    2.7209 H       1  UNL1        0.0000
     23 H          -0.5138    0.8061    4.0249 H       1  UNL1        0.0000
     24 C          -2.8314   -0.6102    1.7203 C.3     1  UNL1        0.0000
     25 C          -2.9380   -1.3278    3.0655 C.3     1  UNL1        0.0000
     26 H          -3.5166   -2.2480    2.9719 H       1  UNL1        0.0000
     27 H          -3.4263   -0.6857    3.7965 H       1  UNL1        0.0000
     28 H          -1.9516   -1.5829    3.4443 H       1  UNL1        0.0000
     29 C          -2.0783   -1.5076    0.7389 C.3     1  UNL1        0.0000
     30 H          -2.5742   -2.4747    0.6450 H       1  UNL1        0.0000
     31 H          -1.0591   -1.6822    1.0761 H       1  UNL1        0.0000
     32 H          -2.0387   -1.0517   -0.2474 H       1  UNL1        0.0000
     33 C          -4.2424   -0.3765    1.1821 C.3     1  UNL1        0.0000
     34 H          -4.7565   -1.3240    1.0143 H       1  UNL1        0.0000
     35 H          -4.2129    0.1648    0.2390 H       1  UNL1        0.0000
     36 H          -4.8266    0.2053    1.8909 H       1  UNL1        0.0000
@<TRIPOS>BOND
     1    18    16    1
     2    19    16    1
     3    32    29    1
     4    35    33    1
     5    16    17    1
     6    16     1    1
     7    30    29    1
     8    29    31    1
     9    29    24    1
    10    34    33    1
    11    33    24    1
    12    33    36    1
    13    24     1    1
    14    24    25    1
    15    15    13    1
    16     1    20    1
    17     1     3    1
    18    14    13    1
    19    22    20    1
    20    21    20    1
    21    13     3    1
    22    13    12    1
    23    20    23    1
    24    26    25    1
    25    25    28    1
    26    25    27    1
    27    11    10    1
    28    12    10    2
    29    12     2    1
    30    10     8    1
    31     2     4    1
    32     8     9    1
    33     8     6    2
    34     4     6    1
    35     4     5    1
    36     6     7    1
