@<TRIPOS>MOLECULE
4,5
 34 38 0 0 0
SMALL
GASTEIGER

@<TRIPOS>ATOM
      1 P           4.4705    3.6095    3.4777 P.3     1  UNL1        0.0000
      2 SI         -0.0210    4.5867    4.3023 Si      1  UNL1        0.0000
      3 SI          3.9157    3.8588    1.2295 Si      1  UNL1        0.0000
      4 N           3.7847    2.0286    3.3878 N.pl3   1  UNL1        0.0000
      5 N           4.3726    0.8227    3.4664 N.2     1  UNL1        0.0000
      6 C           6.0778   -0.8022    3.7403 C.ar    1  UNL1        0.0000
      7 C           5.1602   -1.8319    3.9743 C.ar    1  UNL1        0.0000
      8 H           4.1129   -1.5840    4.0725 H       1  UNL1        0.0000
      9 C           5.5857   -3.1388    4.0975 C.ar    1  UNL1        0.0000
     10 H           4.8655   -3.9231    4.2799 H       1  UNL1        0.0000
     11 C           7.4342   -1.1256    3.6461 C.ar    1  UNL1        0.0000
     12 H           8.1586   -0.3449    3.4675 H       1  UNL1        0.0000
     13 C           7.8529   -2.4358    3.7724 C.ar    1  UNL1        0.0000
     14 H           8.9044   -2.6695    3.6963 H       1  UNL1        0.0000
     15 C           6.9337   -3.4478    3.9964 C.ar    1  UNL1        0.0000
     16 H           7.2647   -4.4703    4.0968 H       1  UNL1        0.0000
     17 C           6.6729    1.6462    3.6659 C.ar    1  UNL1        0.0000
     18 C           7.1805    2.1758    2.4820 C.ar    1  UNL1        0.0000
     19 H           6.8245    1.8049    1.5299 H       1  UNL1        0.0000
     20 C           8.1424    3.1695    2.5230 C.ar    1  UNL1        0.0000
     21 H           8.5287    3.5751    1.6001 H       1  UNL1        0.0000
     22 C           8.6028    3.6408    3.7406 C.ar    1  UNL1        0.0000
     23 H           9.3481    4.4212    3.7703 H       1  UNL1        0.0000
     24 C           8.1098    3.1082    4.9207 C.ar    1  UNL1        0.0000
     25 H           8.4720    3.4712    5.8710 H       1  UNL1        0.0000
     26 C           7.1521    2.1109    4.8872 C.ar    1  UNL1        0.0000
     27 H           6.7658    1.6895    5.8043 H       1  UNL1        0.0000
     28 C           5.6389    0.5812    3.6161 C.2     1  UNL1        0.0000
     29 C           1.7978    4.5810    4.3474 C.1     1  UNL1        0.0000
     30 C           2.9193    4.2484    3.9885 C.3     1  UNL1        0.0000
     31 C          -1.7371    4.5347    4.3556 C.3     1  UNL1        0.0000
     32 C           5.6253    3.6343    0.1172 C.3     1  UNL1        0.0000
     33 C           5.9818    4.7974    0.6216 C.3     1  UNL1        0.0000
     34 C           4.8802    5.5154    0.7999 C.3     1  UNL1        0.0000
@<TRIPOS>BOND
     1    32    33    1
     2    32     3    1
     3    33    34    1
     4    34     3    1
     5     3     1    1
     6    19    18    1
     7    21    20    1
     8    18    20   ar
     9    18    17   ar
    10    20    22   ar
    11     4     5    1
    12     4     1    1
    13     5    28    2
    14    12    11    1
    15     1    30    1
    16    28    17    1
    17    28     6    1
    18    11     6   ar
    19    11    13   ar
    20    17    26   ar
    21    14    13    1
    22     6     7   ar
    23    22    23    1
    24    22    24   ar
    25    13    15   ar
    26     7     8    1
    27     7     9   ar
    28    30    29    1
    29    15    16    1
    30    15     9   ar
    31     9    10    1
    32     2    29    3
    33     2    31    1
    34    26    24   ar
    35    26    27    1
    36    24    25    1
    37     2    30    0
    38     3    33    0
