@<TRIPOS>MOLECULE
4,5
 51 52 0 0 0
SMALL
GASTEIGER

@<TRIPOS>ATOM
      1 SI          8.2341   15.3028   10.0919 Si      1  UNL1        0.0000
      2 SI          4.6926   17.2111   14.3043 Si      1  UNL1        0.0000
      3 P           6.1300   16.9764   11.5572 P.3     1  UNL1        0.0000
      4 N           6.8603   15.6133   11.0961 N.3     1  UNL1        0.0000
      5 N           5.4769   16.4844   12.9476 N.3     1  UNL1        0.0000
      6 C           4.8361   17.4504   10.3699 C.ar    1  UNL1        0.0000
      7 C           4.1834   18.6750   10.4339 C.ar    1  UNL1        0.0000
      8 C           3.1399   18.9452    9.5663 C.ar    1  UNL1        0.0000
      9 C           2.7413   17.9931    8.6410 C.ar    1  UNL1        0.0000
     10 C           3.3826   16.7658    8.5851 C.ar    1  UNL1        0.0000
     11 C           4.4264   16.4928    9.4513 C.ar    1  UNL1        0.0000
     12 C           7.2752   18.3734   11.7599 C.ar    1  UNL1        0.0000
     13 C           8.1215   18.3139   12.8618 C.ar    1  UNL1        0.0000
     14 C           9.0642   19.3061   13.0630 C.ar    1  UNL1        0.0000
     15 C           9.1641   20.3575   12.1644 C.ar    1  UNL1        0.0000
     16 C           8.3277   20.4117   11.0611 C.ar    1  UNL1        0.0000
     17 C           7.3853   19.4188   10.8530 C.ar    1  UNL1        0.0000
     18 C           7.7409   13.8131    8.9940 C.3     1  UNL1        0.0000
     19 C           8.6375   16.8036    8.9805 C.3     1  UNL1        0.0000
     20 C           9.7153   14.9016   11.2317 C.3     1  UNL1        0.0000
     21 C           4.5036   19.1037   14.1130 C.3     1  UNL1        0.0000
     22 C           5.7626   16.8332   15.8442 C.3     1  UNL1        0.0000
     23 C           2.9743   16.3731   14.4018 C.3     1  UNL1        0.0000
     24 H           4.4970   19.4097   11.1615 H       1  UNL1        0.0000
     25 H           2.6346   19.8990    9.6111 H       1  UNL1        0.0000
     26 H           1.9268   18.2084    7.9652 H       1  UNL1        0.0000
     27 H           3.0665   16.0237    7.8666 H       1  UNL1        0.0000
     28 H           4.9452   15.5426    9.4325 H       1  UNL1        0.0000
     29 H           8.0300   17.4798   13.5495 H       1  UNL1        0.0000
     30 H           9.7220   19.2589   13.9178 H       1  UNL1        0.0000
     31 H           9.8981   21.1339   12.3211 H       1  UNL1        0.0000
     32 H           8.4125   21.2273   10.3580 H       1  UNL1        0.0000
     33 H           6.7410   19.4511    9.9860 H       1  UNL1        0.0000
     34 H           7.3262   13.0114    9.6010 H       1  UNL1        0.0000
     35 H           7.0040   14.0859    8.2434 H       1  UNL1        0.0000
     36 H           8.6072   13.4197    8.4735 H       1  UNL1        0.0000
     37 H           9.1054   17.6036    9.5448 H       1  UNL1        0.0000
     38 H           9.3164   16.5196    8.1847 H       1  UNL1        0.0000
     39 H           7.7372   17.2025    8.5231 H       1  UNL1        0.0000
     40 H           9.9038   15.7077   11.9400 H       1  UNL1        0.0000
     41 H           9.5179   13.9978   11.8087 H       1  UNL1        0.0000
     42 H          10.6268   14.7349   10.6662 H       1  UNL1        0.0000
     43 H           3.6879   19.3488   13.4413 H       1  UNL1        0.0000
     44 H           4.2856   19.5620   15.0710 H       1  UNL1        0.0000
     45 H           5.4107   19.5587   13.7258 H       1  UNL1        0.0000
     46 H           6.7254   17.3385   15.8078 H       1  UNL1        0.0000
     47 H           5.2625   17.1438   16.7564 H       1  UNL1        0.0000
     48 H           5.9576   15.7638   15.9264 H       1  UNL1        0.0000
     49 H           2.3853   16.5672   13.5088 H       1  UNL1        0.0000
     50 H           3.0891   15.2953   14.4976 H       1  UNL1        0.0000
     51 H           2.4088   16.7254   15.2576 H       1  UNL1        0.0000
@<TRIPOS>BOND
     1    27    10    1
     2    26     9    1
     3    38    19    1
     4    35    18    1
     5    36    18    1
     6    39    19    1
     7    10     9   ar
     8    10    11   ar
     9     9     8   ar
    10    19    37    1
    11    19     1    1
    12    18    34    1
    13    18     1    1
    14    28    11    1
    15    11     6   ar
    16     8    25    1
    17     8     7   ar
    18    33    17    1
    19     1     4    1
    20     1    20    1
    21    32    16    1
    22     6     7   ar
    23     6     3    1
    24     7    24    1
    25    42    20    1
    26    17    16   ar
    27    17    12   ar
    28    16    15   ar
    29     4     3    1
    30    20    41    1
    31    20    40    1
    32     3    12    1
    33     3     5    1
    34    12    13   ar
    35    15    31    1
    36    15    14   ar
    37    13    14   ar
    38    13    29    1
    39     5     2    1
    40    14    30    1
    41    43    21    1
    42    49    23    1
    43    45    21    1
    44    21     2    1
    45    21    44    1
    46     2    23    1
    47     2    22    1
    48    23    50    1
    49    23    51    1
    50    46    22    1
    51    22    48    1
    52    22    47    1
