@<TRIPOS>MOLECULE
1,2
 24 23 0 0 0
SMALL
GASTEIGER

@<TRIPOS>ATOM
      1 N          13.5956    2.6390   15.3619 N.3     1  UNL1       -0.3071
      2 N          13.5133    0.3507   13.5444 N.3     1  UNL1       -0.3071
      3 C          13.9473    0.6998   12.1921 C.3     1  UNL1       -0.0130
      4 H          14.7349    0.0183   11.8442 H       1  UNL1        0.0391
      5 H          14.3296    1.7165   12.1462 H       1  UNL1        0.0391
      6 H          13.0856    0.6297   11.5311 H       1  UNL1        0.0391
      7 C          13.1412   -1.0559   13.5259 C.3     1  UNL1       -0.0130
      8 H          12.4016   -1.2034   12.7484 H       1  UNL1        0.0391
      9 H          12.6930   -1.3110   14.4762 H       1  UNL1        0.0391
     10 H          14.0085   -1.7013   13.3317 H       1  UNL1        0.0391
     11 C          14.5992    0.5497   14.5031 C.3     1  UNL1        0.0111
     12 H          15.5427    0.1224   14.1272 H       1  UNL1        0.0439
     13 H          14.3216    0.0267   15.4177 H       1  UNL1        0.0439
     14 C          14.8145    2.0261   14.8233 C.3     1  UNL1        0.0111
     15 H          15.6492    2.1240   15.5354 H       1  UNL1        0.0439
     16 H          15.0989    2.5605   13.9130 H       1  UNL1        0.0439
     17 C          13.4735    2.3312   16.7833 C.3     1  UNL1       -0.0130
     18 H          14.3207    2.7433   17.3512 H       1  UNL1        0.0391
     19 H          13.4216    1.2595   16.9307 H       1  UNL1        0.0391
     20 H          12.5481    2.7534   17.1652 H       1  UNL1        0.0391
     21 C          13.6859    4.0923   15.2371 C.3     1  UNL1       -0.0130
     22 H          12.7694    4.5440   15.6106 H       1  UNL1        0.0391
     23 H          13.8158    4.3880   14.1980 H       1  UNL1        0.0391
     24 H          14.5304    4.4904   15.8176 H       1  UNL1        0.0391
@<TRIPOS>BOND
     1     6     3    1
     2     4     3    1
     3     5     3    1
     4     3     2    1
     5     8     7    1
     6    10     7    1
     7     7     2    1
     8     7     9    1
     9     2    11    1
    10    16    14    1
    11    12    11    1
    12    23    21    1
    13    11    14    1
    14    11    13    1
    15    14     1    1
    16    14    15    1
    17    21     1    1
    18    21    22    1
    19    21    24    1
    20     1    17    1
    21    17    19    1
    22    17    20    1
    23    17    18    1
