@<TRIPOS>MOLECULE
1,2
 58 60 0 0 0
SMALL
GASTEIGER

@<TRIPOS>ATOM
      1 N           1.1654    9.1432    5.0383 N.pl3   1  UNL1       -0.2140
      2 N           1.5646   10.4379    7.6220 N.3     1  UNL1       -0.1934
      3 O           1.3942   12.6681    7.5309 O.3     1  UNL1       -0.3477
      4 C           1.2431   11.5500    5.4495 C.ar    1  UNL1        0.0278
      5 C           1.1414    8.1323    4.0419 C.ar    1  UNL1        0.0605
      6 C           1.1324   10.4111    4.5898 C.ar    1  UNL1        0.0611
      7 C           0.9561   10.6949    3.2040 C.ar    1  UNL1       -0.0383
      8 H           0.8599    9.8604    2.5246 H       1  UNL1        0.0637
      9 C          -0.0760    6.5724    2.6682 C.ar    1  UNL1       -0.0565
     10 H          -1.0062    6.1164    2.3644 H       1  UNL1        0.0621
     11 C           2.3370    7.7525    3.4010 C.ar    1  UNL1       -0.0216
     12 C           1.7358   10.8867    9.0033 C.3     1  UNL1        0.0545
     13 H           0.9820   10.3920    9.6287 H       1  UNL1        0.0503
     14 C           1.1716   12.8437    4.8984 C.ar    1  UNL1       -0.0525
     15 H           1.2551   13.6803    5.5740 H       1  UNL1        0.0622
     16 C           1.0907    6.2223    2.0139 C.ar    1  UNL1       -0.0611
     17 H           1.0675    5.4995    1.2116 H       1  UNL1        0.0618
     18 C           2.2876    6.8032    2.3897 C.ar    1  UNL1       -0.0565
     19 H           3.1943    6.5217    1.8763 H       1  UNL1        0.0621
     20 C          -0.0731    7.5174    3.6839 C.ar    1  UNL1       -0.0216
     21 C           1.4051   11.4840    6.8732 C.3     1  UNL1        0.2127
     22 C           0.8935   11.9659    2.7065 C.ar    1  UNL1       -0.0599
     23 H           0.7536   12.1167    1.6450 H       1  UNL1        0.0618
     24 C           3.6584    8.3723    3.8014 C.3     1  UNL1       -0.0197
     25 H           3.5154    8.8683    4.7723 H       1  UNL1        0.0344
     26 C          -1.3618    7.9130    4.3712 C.3     1  UNL1       -0.0197
     27 H          -1.1011    8.3763    5.3397 H       1  UNL1        0.0344
     28 C           1.0057   13.0669    3.5581 C.ar    1  UNL1       -0.0612
     29 H           0.9579   14.0708    3.1666 H       1  UNL1        0.0618
     30 C           1.4736   12.4023    8.9177 C.3     1  UNL1        0.0677
     31 H           0.5236   12.6858    9.3837 H       1  UNL1        0.0577
     32 H           2.2733   13.0114    9.3432 H       1  UNL1        0.0577
     33 C          -2.2594    6.7100    4.6658 C.3     1  UNL1       -0.0586
     34 H          -3.0684    7.0110    5.3278 H       1  UNL1        0.0235
     35 H          -2.7029    6.3095    3.7566 H       1  UNL1        0.0235
     36 H          -1.6875    5.9258    5.1540 H       1  UNL1        0.0235
     37 C           4.7594    7.3195    3.9603 C.3     1  UNL1       -0.0586
     38 H           5.6278    7.7659    4.4397 H       1  UNL1        0.0235
     39 H           4.4180    6.4878    4.5730 H       1  UNL1        0.0235
     40 H           5.0737    6.9296    2.9950 H       1  UNL1        0.0235
     41 C           4.2593   11.1278    8.7380 C.3     1  UNL1       -0.0611
     42 H           5.2136   10.7176    9.0597 H       1  UNL1        0.0233
     43 H           4.1293   10.9086    7.6797 H       1  UNL1        0.0233
     44 H           4.2961   12.2075    8.8663 H       1  UNL1        0.0233
     45 C           4.0961    9.4256    2.7794 C.3     1  UNL1       -0.0586
     46 H           5.0591    9.8451    3.0631 H       1  UNL1        0.0235
     47 H           4.1911    8.9787    1.7914 H       1  UNL1        0.0235
     48 H           3.3708   10.2335    2.7250 H       1  UNL1        0.0235
     49 C           3.1256   10.5022    9.5478 C.3     1  UNL1       -0.0275
     50 H           3.1938    9.4139    9.4431 H       1  UNL1        0.0312
     51 C          -2.1203    8.9460    3.5324 C.3     1  UNL1       -0.0586
     52 H          -3.0423    9.2308    4.0347 H       1  UNL1        0.0235
     53 H          -1.5182    9.8398    3.3860 H       1  UNL1        0.0235
     54 H          -2.3682    8.5340    2.5553 H       1  UNL1        0.0235
     55 C           3.2410   10.8536   11.0289 C.3     1  UNL1       -0.0611
     56 H           2.4466   10.3766   11.5986 H       1  UNL1        0.0233
     57 H           4.1955   10.5094   11.4195 H       1  UNL1        0.0233
     58 H           3.1773   11.9279   11.1874 H       1  UNL1        0.0233
@<TRIPOS>BOND
     1    17    16    1
     2    23    22    1
     3    47    45    1
     4    19    18    1
     5    16    18   ar
     6    16     9   ar
     7    10     9    1
     8    18    11   ar
     9     8     7    1
    10    54    51    1
    11     9    20   ar
    12    22     7   ar
    13    22    28   ar
    14    48    45    1
    15    45    46    1
    16    45    24    1
    17    40    37    1
    18    29    28    1
    19     7     6   ar
    20    53    51    1
    21    11    24    1
    22    11     5   ar
    23    51    52    1
    24    51    26    1
    25    28    14   ar
    26    20     5   ar
    27    20    26    1
    28    35    33    1
    29    24    37    1
    30    24    25    1
    31    37    38    1
    32    37    39    1
    33     5     1    1
    34    26    33    1
    35    26    27    1
    36     6     1    1
    37     6     4   ar
    38    33    36    1
    39    33    34    1
    40    14     4   ar
    41    14    15    1
    42     4    21    1
    43    21     3    1
    44    21     2    1
    45     3    30    1
    46     2    12    1
    47    43    41    1
    48    41    44    1
    49    41    42    1
    50    41    49    1
    51    30    12    1
    52    30    32    1
    53    30    31    1
    54    12    49    1
    55    12    13    1
    56    50    49    1
    57    49    55    1
    58    55    58    1
    59    55    57    1
    60    55    56    1
