@<TRIPOS>MOLECULE
2,3
 47 50 0 0 0
SMALL
GASTEIGER

@<TRIPOS>ATOM
      1 O           6.8440   11.9523    4.8661 O.3     1  UNL1       -0.3474
      2 N           5.4909   10.1635    4.8196 N.3     1  UNL1       -0.1889
      3 N           5.5643    8.7102    2.3608 N.pl3   1  UNL1       -0.2140
      4 C           6.2876   10.9419    4.1534 C.3     1  UNL1        0.2130
      5 C           7.1446    9.5879    0.7549 C.ar    1  UNL1       -0.0383
      6 H           7.0321    8.6951    0.1571 H       1  UNL1        0.0637
      7 C           6.7093   10.8154    2.7927 C.ar    1  UNL1        0.0278
      8 C           6.4254    9.6681    1.9828 C.ar    1  UNL1        0.0611
      9 C           7.9528   10.5933    0.3064 C.ar    1  UNL1       -0.0599
     10 H           8.4574   10.4882   -0.6441 H       1  UNL1        0.0618
     11 C           5.4764    7.5721    1.5221 C.ar    1  UNL1        0.0595
     12 C           7.5361   11.8382    2.2903 C.ar    1  UNL1       -0.0525
     13 H           7.6972   12.7035    2.9144 H       1  UNL1        0.0622
     14 C           8.1341   11.7555    1.0622 C.ar    1  UNL1       -0.0612
     15 H           8.7540   12.5574    0.6933 H       1  UNL1        0.0618
     16 C           5.5453   10.5603    6.2233 C.3     1  UNL1        0.0771
     17 H           4.5316   10.7234    6.6029 H       1  UNL1        0.0550
     18 C           6.1656    6.4063    1.8881 C.ar    1  UNL1       -0.0272
     19 C           4.7118    7.5935    0.3452 C.ar    1  UNL1       -0.0272
     20 C           6.3609   11.8761    6.1918 C.3     1  UNL1        0.0716
     21 H           5.7471   12.7582    6.4004 H       1  UNL1        0.0580
     22 H           7.2134   11.8575    6.8770 H       1  UNL1        0.0580
     23 C           3.9671    8.8382   -0.0335 C.3     1  UNL1       -0.0379
     24 H           3.2127    8.6238   -0.7881 H       1  UNL1        0.0278
     25 H           3.4914    9.2755    0.8519 H       1  UNL1        0.0278
     26 H           4.6538    9.5839   -0.4369 H       1  UNL1        0.0278
     27 C           6.2399    9.5228    7.0759 C.ar    1  UNL1       -0.0266
     28 C           7.2548    8.7324    6.5503 C.ar    1  UNL1       -0.0570
     29 H           7.5294    8.8391    5.5098 H       1  UNL1        0.0621
     30 C           6.9759    6.4000    3.1515 C.3     1  UNL1       -0.0379
     31 H           7.3460    5.4005    3.3698 H       1  UNL1        0.0278
     32 H           7.8286    7.0730    3.0522 H       1  UNL1        0.0278
     33 H           6.3671    6.7566    3.9934 H       1  UNL1        0.0278
     34 C           6.0930    5.2876    1.0717 C.ar    1  UNL1       -0.0570
     35 H           6.6293    4.3910    1.3506 H       1  UNL1        0.0621
     36 C           4.6708    6.4620   -0.4546 C.ar    1  UNL1       -0.0570
     37 H           4.1052    6.4856   -1.3766 H       1  UNL1        0.0621
     38 C           5.3588    5.3139   -0.1011 C.ar    1  UNL1       -0.0611
     39 H           5.3279    4.4442   -0.7414 H       1  UNL1        0.0618
     40 C           5.9039    9.3901    8.4168 C.ar    1  UNL1       -0.0570
     41 H           5.1282   10.0143    8.8358 H       1  UNL1        0.0621
     42 C           7.9031    7.8059    7.3479 C.ar    1  UNL1       -0.0615
     43 H           8.6846    7.1903    6.9273 H       1  UNL1        0.0618
     44 C           7.5522    7.6679    8.6800 C.ar    1  UNL1       -0.0617
     45 H           8.0561    6.9424    9.3010 H       1  UNL1        0.0618
     46 C           6.5547    8.4659    9.2142 C.ar    1  UNL1       -0.0615
     47 H           6.2812    8.3668   10.2542 H       1  UNL1        0.0618
@<TRIPOS>BOND
     1    37    36    1
     2    24    23    1
     3    39    38    1
     4    10     9    1
     5    36    38   ar
     6    36    19   ar
     7    26    23    1
     8    38    34   ar
     9    23    19    1
    10    23    25    1
    11     6     5    1
    12     9     5   ar
    13     9    14   ar
    14    19    11   ar
    15    15    14    1
    16     5     8   ar
    17    14    12   ar
    18    34    35    1
    19    34    18   ar
    20    11    18   ar
    21    11     3    1
    22    18    30    1
    23     8     3    1
    24     8     7   ar
    25    12     7   ar
    26    12    13    1
    27     7     4    1
    28    32    30    1
    29    30    31    1
    30    30    33    1
    31     4     2    1
    32     4     1    1
    33     2    16    1
    34     1    20    1
    35    29    28    1
    36    20    16    1
    37    20    21    1
    38    20    22    1
    39    16    17    1
    40    16    27    1
    41    28    27   ar
    42    28    42   ar
    43    43    42    1
    44    27    40   ar
    45    42    44   ar
    46    40    41    1
    47    40    46   ar
    48    44    46   ar
    49    44    45    1
    50    46    47    1
