@<TRIPOS>MOLECULE
2,3
 59 62 0 0 0
SMALL
GASTEIGER

@<TRIPOS>ATOM
      1 O          11.0223    6.3890    6.8406 O.3     1  UNL1       -0.3474
      2 N          10.8730    3.3311    9.8806 N.pl3   1  UNL1       -0.2140
      3 N          11.5505    4.2459    7.2383 N.3     1  UNL1       -0.1889
      4 C          10.4167    5.5511    8.9751 C.ar    1  UNL1        0.0278
      5 C           9.3395    1.5811   10.6114 C.ar    1  UNL1       -0.0216
      6 C          11.0380    5.3427    7.7046 C.3     1  UNL1        0.2130
      7 C          10.2579    4.5235    9.9594 C.ar    1  UNL1        0.0611
      8 C           9.4071    4.8512   11.0576 C.ar    1  UNL1       -0.0383
      9 H           9.2098    4.0855   11.7935 H       1  UNL1        0.0637
     10 C           8.5901    1.6964    9.3005 C.3     1  UNL1       -0.0197
     11 H           9.2710    2.1570    8.5661 H       1  UNL1        0.0344
     12 C          11.1984    2.2291   12.0539 C.ar    1  UNL1       -0.0216
     13 C          10.4772    2.3752   10.8538 C.ar    1  UNL1        0.0605
     14 C           8.9125    0.6963   11.5912 C.ar    1  UNL1       -0.0565
     15 H           8.0298    0.0978   11.4260 H       1  UNL1        0.0621
     16 C          11.8331    4.4504    5.8217 C.3     1  UNL1        0.0771
     17 H          12.8593    4.1441    5.5933 H       1  UNL1        0.0550
     18 C          10.7320    1.3350   13.0071 C.ar    1  UNL1       -0.0565
     19 H          11.2503    1.2319   13.9478 H       1  UNL1        0.0621
     20 C           9.5921    0.5829   12.7892 C.ar    1  UNL1       -0.0611
     21 H           9.2357   -0.0931   13.5526 H       1  UNL1        0.0618
     22 C           9.1016    7.1101   10.3006 C.ar    1  UNL1       -0.0612
     23 H           8.6856    8.0943   10.4475 H       1  UNL1        0.0618
     24 C           8.8581    6.0909   11.2257 C.ar    1  UNL1       -0.0599
     25 H           8.2348    6.2847   12.0875 H       1  UNL1        0.0618
     26 C          10.8727    3.6784    4.9443 C.ar    1  UNL1       -0.0266
     27 C           9.5653    3.4440    5.3529 C.ar    1  UNL1       -0.0570
     28 H           9.2380    3.7915    6.3231 H       1  UNL1        0.0621
     29 C          12.4524    3.0433   12.2962 C.3     1  UNL1       -0.0197
     30 H          12.9260    3.2180   11.3120 H       1  UNL1        0.0344
     31 C           9.8580    6.8248    9.1967 C.ar    1  UNL1       -0.0525
     32 H          10.0304    7.5832    8.4492 H       1  UNL1        0.0622
     33 C          11.6427    5.9757    5.6409 C.3     1  UNL1        0.0716
     34 H          12.5948    6.5065    5.5309 H       1  UNL1        0.0580
     35 H          10.9889    6.2232    4.8005 H       1  UNL1        0.0580
     36 C          12.1242    4.4023   12.9238 C.3     1  UNL1       -0.0586
     37 H          13.0435    4.9504   13.1181 H       1  UNL1        0.0235
     38 H          11.5008    5.0015   12.2669 H       1  UNL1        0.0235
     39 H          11.5966    4.2632   13.8662 H       1  UNL1        0.0235
     40 C          11.2765    3.2436    3.6890 C.ar    1  UNL1       -0.0570
     41 H          12.2854    3.4382    3.3546 H       1  UNL1        0.0621
     42 C           8.1610    0.3318    8.7543 C.3     1  UNL1       -0.0586
     43 H           7.8457    0.4341    7.7180 H       1  UNL1        0.0235
     44 H           8.9836   -0.3794    8.7922 H       1  UNL1        0.0235
     45 H           7.3257   -0.0748    9.3201 H       1  UNL1        0.0235
     46 C          13.4598    2.3215   13.1931 C.3     1  UNL1       -0.0586
     47 H          14.4095    2.8522   13.1795 H       1  UNL1        0.0235
     48 H          13.1174    2.2960   14.2255 H       1  UNL1        0.0235
     49 H          13.6262    1.3037   12.8536 H       1  UNL1        0.0235
     50 C           7.3617    2.5984    9.4553 C.3     1  UNL1       -0.0586
     51 H           6.8187    2.6569    8.5140 H       1  UNL1        0.0235
     52 H           6.6930    2.1981   10.2155 H       1  UNL1        0.0235
     53 H           7.6534    3.6038    9.7491 H       1  UNL1        0.0235
     54 C          10.3956    2.5676    2.8635 C.ar    1  UNL1       -0.0615
     55 H          10.7228    2.2301    1.8912 H       1  UNL1        0.0618
     56 C           8.6860    2.7643    4.5285 C.ar    1  UNL1       -0.0615
     57 H           7.6742    2.5814    4.8591 H       1  UNL1        0.0618
     58 C           9.0994    2.3216    3.2838 C.ar    1  UNL1       -0.0617
     59 H           8.4139    1.7879    2.6426 H       1  UNL1        0.0618
@<TRIPOS>BOND
     1    55    54    1
     2    59    58    1
     3    54    58   ar
     4    54    40   ar
     5    58    56   ar
     6    41    40    1
     7    40    26   ar
     8    56    57    1
     9    56    27   ar
    10    35    33    1
    11    26    27   ar
    12    26    16    1
    13    27    28    1
    14    34    33    1
    15    17    16    1
    16    33    16    1
    17    33     1    1
    18    16     3    1
    19     1     6    1
    20     3     6    1
    21     6     4    1
    22    43    42    1
    23    32    31    1
    24    51    50    1
    25    11    10    1
    26    42    44    1
    27    42    10    1
    28    42    45    1
    29     4    31   ar
    30     4     7   ar
    31    31    22   ar
    32    10    50    1
    33    10     5    1
    34    50    53    1
    35    50    52    1
    36     2     7    1
    37     2    13    1
    38     7     8   ar
    39    22    23    1
    40    22    24   ar
    41     5    13   ar
    42     5    14   ar
    43    13    12   ar
    44     8    24   ar
    45     8     9    1
    46    24    25    1
    47    30    29    1
    48    15    14    1
    49    14    20   ar
    50    12    29    1
    51    12    18   ar
    52    38    36    1
    53    29    36    1
    54    29    46    1
    55    20    18   ar
    56    20    21    1
    57    49    46    1
    58    36    37    1
    59    36    39    1
    60    18    19    1
    61    47    46    1
    62    46    48    1
