@<TRIPOS>MOLECULE
2,3
 81 82 0 0 0
SMALL
GASTEIGER

@<TRIPOS>ATOM
      1 SI         -0.0506    7.0948    1.6622 Si      1  UNL1        0.0000
      2 N          -0.2551    7.7491    0.0693 N.pl3   1  UNL1        0.0000
      3 N           1.1875    8.2434    2.0258 N.pl3   1  UNL1        0.0000
      4 C          -1.6320    7.1814    2.8280 C.3     1  UNL1        0.0000
      5 H          -1.2364    7.1386    3.8503 H       1  UNL1        0.0000
      6 C          -2.4478    8.4684    2.7054 C.3     1  UNL1        0.0000
      7 H          -3.1145    8.5771    3.5636 H       1  UNL1        0.0000
      8 H          -3.0638    8.4345    1.8108 H       1  UNL1        0.0000
      9 H          -1.8253    9.3524    2.6414 H       1  UNL1        0.0000
     10 C          -2.6209    6.0243    2.6689 C.3     1  UNL1        0.0000
     11 H          -3.5034    6.1996    3.2877 H       1  UNL1        0.0000
     12 H          -2.1953    5.0719    2.9693 H       1  UNL1        0.0000
     13 H          -2.9447    5.9481    1.6339 H       1  UNL1        0.0000
     14 C           0.5493    5.2469    1.7338 C.3     1  UNL1        0.0000
     15 H           1.5655    5.2380    1.3356 H       1  UNL1        0.0000
     16 C          -0.2624    4.2952    0.8586 C.3     1  UNL1        0.0000
     17 H           0.2196    3.3162    0.8011 H       1  UNL1        0.0000
     18 H          -0.3563    4.6959   -0.1484 H       1  UNL1        0.0000
     19 H          -1.2627    4.1483    1.2530 H       1  UNL1        0.0000
     20 C           0.6510    4.7283    3.1656 C.3     1  UNL1        0.0000
     21 H           1.1541    3.7593    3.1946 H       1  UNL1        0.0000
     22 H          -0.3297    4.6047    3.6161 H       1  UNL1        0.0000
     23 H           1.2098    5.4318    3.7786 H       1  UNL1        0.0000
     24 C          -0.4760    7.2160   -1.1835 C.ar    1  UNL1        0.0000
     25 C          -1.7522    7.3171   -1.7835 C.ar    1  UNL1        0.0000
     26 C          -1.9912    6.7359   -3.0156 C.ar    1  UNL1        0.0000
     27 H          -2.9737    6.8135   -3.4605 H       1  UNL1        0.0000
     28 C          -0.9896    6.0688   -3.6969 C.ar    1  UNL1        0.0000
     29 H          -1.1909    5.6056   -4.6530 H       1  UNL1        0.0000
     30 C           0.2856    6.0440   -3.1637 C.ar    1  UNL1        0.0000
     31 H           1.0820    5.5774   -3.7273 H       1  UNL1        0.0000
     32 C           0.5664    6.6140   -1.9324 C.ar    1  UNL1        0.0000
     33 C          -2.8075    8.1500   -1.0987 C.3     1  UNL1        0.0000
     34 H          -2.3994    8.4290   -0.1196 H       1  UNL1        0.0000
     35 C          -3.0282    9.4428   -1.8890 C.3     1  UNL1        0.0000
     36 H          -2.0785    9.9614   -2.0093 H       1  UNL1        0.0000
     37 H          -3.7136   10.0980   -1.3548 H       1  UNL1        0.0000
     38 H          -3.4359    9.2314   -2.8765 H       1  UNL1        0.0000
     39 C          -4.1232    7.3945   -0.9078 C.3     1  UNL1        0.0000
     40 H          -3.9510    6.4459   -0.4028 H       1  UNL1        0.0000
     41 H          -4.5972    7.1886   -1.8659 H       1  UNL1        0.0000
     42 H          -4.8132    7.9870   -0.3090 H       1  UNL1        0.0000
     43 C           1.9956    6.6588   -1.4354 C.3     1  UNL1        0.0000
     44 H           1.9783    7.1216   -0.4324 H       1  UNL1        0.0000
     45 C           2.8540    7.5430   -2.3503 C.3     1  UNL1        0.0000
     46 H           2.3965    8.5247   -2.4739 H       1  UNL1        0.0000
     47 H           2.9511    7.0885   -3.3353 H       1  UNL1        0.0000
     48 H           3.8505    7.6684   -1.9265 H       1  UNL1        0.0000
     49 C           2.6252    5.2653   -1.3398 C.3     1  UNL1        0.0000
     50 H           3.6068    5.3286   -0.8732 H       1  UNL1        0.0000
     51 H           2.7493    4.8345   -2.3318 H       1  UNL1        0.0000
     52 H           2.0031    4.5947   -0.7551 H       1  UNL1        0.0000
     53 C           2.0597    8.4943    3.0633 C.ar    1  UNL1        0.0000
     54 C           1.7737    9.5066    4.0132 C.ar    1  UNL1        0.0000
     55 C           2.6311    9.7480    5.0713 C.ar    1  UNL1        0.0000
     56 H           2.3848   10.5181    5.7899 H       1  UNL1        0.0000
     57 C           3.8010    9.0282    5.2237 C.ar    1  UNL1        0.0000
     58 H           4.4585    9.2140    6.0621 H       1  UNL1        0.0000
     59 C           4.1343    8.0939    4.2619 C.ar    1  UNL1        0.0000
     60 H           5.0759    7.5682    4.3473 H       1  UNL1        0.0000
     61 C           3.3038    7.8237    3.1870 C.ar    1  UNL1        0.0000
     62 C           0.5422   10.3594    3.8365 C.3     1  UNL1        0.0000
     63 H           0.0496   10.0114    2.9169 H       1  UNL1        0.0000
     64 C           0.9083   11.8341    3.6376 C.3     1  UNL1        0.0000
     65 H           1.6715   11.9309    2.8655 H       1  UNL1        0.0000
     66 H           1.2913   12.2714    4.5589 H       1  UNL1        0.0000
     67 H           0.0262   12.3909    3.3242 H       1  UNL1        0.0000
     68 C          -0.4270   10.2024    5.0103 C.3     1  UNL1        0.0000
     69 H          -0.6940    9.1568    5.1413 H       1  UNL1        0.0000
     70 H          -1.3345   10.7731    4.8250 H       1  UNL1        0.0000
     71 H           0.0246   10.5604    5.9345 H       1  UNL1        0.0000
     72 C           3.7925    6.8808    2.1118 C.3     1  UNL1        0.0000
     73 H           2.9746    6.7589    1.3973 H       1  UNL1        0.0000
     74 C           4.9863    7.4953    1.3722 C.3     1  UNL1        0.0000
     75 H           4.7185    8.4655    0.9621 H       1  UNL1        0.0000
     76 H           5.3023    6.8442    0.5573 H       1  UNL1        0.0000
     77 H           5.8289    7.6299    2.0486 H       1  UNL1        0.0000
     78 C           4.1815    5.5047    2.6580 C.3     1  UNL1        0.0000
     79 H           4.3999    4.8232    1.8366 H       1  UNL1        0.0000
     80 H           3.3769    5.0823    3.2515 H       1  UNL1        0.0000
     81 H           5.0691    5.5726    3.2842 H       1  UNL1        0.0000
@<TRIPOS>BOND
     1    29    28    1
     2    31    30    1
     3    28    30   ar
     4    28    26   ar
     5    27    26    1
     6    47    45    1
     7    30    32   ar
     8    26    25   ar
     9    38    35    1
    10    46    45    1
    11    45    48    1
    12    45    43    1
    13    51    49    1
    14    36    35    1
    15    32    43    1
    16    32    24   ar
    17    35    37    1
    18    35    33    1
    19    41    39    1
    20    25    24   ar
    21    25    33    1
    22    43    49    1
    23    43    44    1
    24    49    50    1
    25    49    52    1
    26    24     2    1
    27    33    39    1
    28    33    34    1
    29    39    40    1
    30    39    42    1
    31    18    16    1
    32     2     1    1
    33    76    74    1
    34    17    16    1
    35    16    19    1
    36    16    14    1
    37    75    74    1
    38    15    14    1
    39    74    77    1
    40    74    72    1
    41    73    72    1
    42    13    10    1
    43     1    14    1
    44     1     3    1
    45     1     4    1
    46    14    20    1
    47     8     6    1
    48    79    78    1
    49     3    53    1
    50    72    78    1
    51    72    61    1
    52     9     6    1
    53    78    80    1
    54    78    81    1
    55    10     4    1
    56    10    12    1
    57    10    11    1
    58     6     4    1
    59     6     7    1
    60     4     5    1
    61    65    64    1
    62    63    62    1
    63    53    61   ar
    64    53    54   ar
    65    20    21    1
    66    20    22    1
    67    20    23    1
    68    61    59   ar
    69    67    64    1
    70    64    62    1
    71    64    66    1
    72    62    54    1
    73    62    68    1
    74    54    55   ar
    75    59    60    1
    76    59    57   ar
    77    70    68    1
    78    68    69    1
    79    68    71    1
    80    55    57   ar
    81    55    56    1
    82    57    58    1
