@<TRIPOS>MOLECULE
2,3
 81 82 0 0 0
SMALL
GASTEIGER

@<TRIPOS>ATOM
      1 SI          0.7426    3.0737    9.7845 Si      1  UNL1        0.0000
      2 N           1.8830    4.2953   10.2720 N.pl3   1  UNL1        0.0000
      3 N           1.9878    1.9849    9.2681 N.pl3   1  UNL1        0.0000
      4 C          -0.5411    3.6069    8.4449 C.3     1  UNL1        0.0000
      5 H           0.0165    4.1452    7.6746 H       1  UNL1        0.0000
      6 C          -1.5815    4.5849    8.9834 C.3     1  UNL1        0.0000
      7 H          -2.1597    5.0198    8.1671 H       1  UNL1        0.0000
      8 H          -1.0979    5.3868    9.5361 H       1  UNL1        0.0000
      9 H          -2.2788    4.0905    9.6532 H       1  UNL1        0.0000
     10 C          -1.2045    2.4215    7.7516 C.3     1  UNL1        0.0000
     11 H          -1.8475    2.7621    6.9387 H       1  UNL1        0.0000
     12 H          -1.8152    1.8528    8.4465 H       1  UNL1        0.0000
     13 H          -0.4495    1.7569    7.3362 H       1  UNL1        0.0000
     14 C          -0.1694    2.4435   11.3996 C.3     1  UNL1        0.0000
     15 H          -0.3136    3.3492   11.9973 H       1  UNL1        0.0000
     16 C          -1.5440    1.7912   11.2557 C.3     1  UNL1        0.0000
     17 H          -1.9127    1.4811   12.2350 H       1  UNL1        0.0000
     18 H          -1.4971    0.9077   10.6224 H       1  UNL1        0.0000
     19 H          -2.2727    2.4755   10.8330 H       1  UNL1        0.0000
     20 C           0.7268    1.4885   12.1981 C.3     1  UNL1        0.0000
     21 H           0.5751    1.6110   13.2707 H       1  UNL1        0.0000
     22 H           1.7827    1.6479   11.9599 H       1  UNL1        0.0000
     23 H           0.4829    0.4584   11.9496 H       1  UNL1        0.0000
     24 C           1.7223    5.5720   10.7791 C.ar    1  UNL1        0.0000
     25 C           1.7995    5.8172   12.1707 C.ar    1  UNL1        0.0000
     26 C           1.5983    7.0930   12.6700 C.ar    1  UNL1        0.0000
     27 H           1.6551    7.2649   13.7353 H       1  UNL1        0.0000
     28 C           1.3301    8.1572   11.8307 C.ar    1  UNL1        0.0000
     29 H           1.1579    9.1444   12.2335 H       1  UNL1        0.0000
     30 C           1.3255    7.9459   10.4649 C.ar    1  UNL1        0.0000
     31 H           1.1714    8.7870    9.8048 H       1  UNL1        0.0000
     32 C           1.5259    6.6861    9.9268 C.ar    1  UNL1        0.0000
     33 C           2.1908    4.6977   13.1076 C.3     1  UNL1        0.0000
     34 H           2.1467    3.7619   12.5298 H       1  UNL1        0.0000
     35 C           1.2614    4.5806   14.3173 C.3     1  UNL1        0.0000
     36 H           1.5069    3.6899   14.8930 H       1  UNL1        0.0000
     37 H           0.2241    4.5114   13.9985 H       1  UNL1        0.0000
     38 H           1.3585    5.4420   14.9738 H       1  UNL1        0.0000
     39 C           3.6404    4.9115   13.5654 C.3     1  UNL1        0.0000
     40 H           3.9339    4.1431   14.2790 H       1  UNL1        0.0000
     41 H           3.7441    5.8820   14.0477 H       1  UNL1        0.0000
     42 H           4.3107    4.8710   12.7022 H       1  UNL1        0.0000
     43 C           1.6511    6.5304    8.4289 C.3     1  UNL1        0.0000
     44 H           1.5904    5.4624    8.2083 H       1  UNL1        0.0000
     45 C           3.0327    7.0336    7.9935 C.3     1  UNL1        0.0000
     46 H           3.8108    6.4156    8.4369 H       1  UNL1        0.0000
     47 H           3.1798    8.0625    8.3167 H       1  UNL1        0.0000
     48 H           3.1302    7.0016    6.9093 H       1  UNL1        0.0000
     49 C           0.5618    7.2609    7.6424 C.3     1  UNL1        0.0000
     50 H          -0.4229    7.0344    8.0400 H       1  UNL1        0.0000
     51 H           0.5897    6.9550    6.5977 H       1  UNL1        0.0000
     52 H           0.7074    8.3382    7.6784 H       1  UNL1        0.0000
     53 C           2.1475    1.2353    8.1328 C.ar    1  UNL1        0.0000
     54 C           1.6571   -0.0937    8.0521 C.ar    1  UNL1        0.0000
     55 C           1.9525   -0.8835    6.9569 C.ar    1  UNL1        0.0000
     56 H           1.5954   -1.9019    6.9197 H       1  UNL1        0.0000
     57 C           2.6945   -0.3929    5.8971 C.ar    1  UNL1        0.0000
     58 H           2.9162   -1.0206    5.0467 H       1  UNL1        0.0000
     59 C           3.1232    0.9213    5.9294 C.ar    1  UNL1        0.0000
     60 H           3.6650    1.3126    5.0796 H       1  UNL1        0.0000
     61 C           2.8676    1.7409    7.0173 C.ar    1  UNL1        0.0000
     62 C           0.8348   -0.6329    9.1971 C.3     1  UNL1        0.0000
     63 H           0.4126    0.2351    9.7068 H       1  UNL1        0.0000
     64 C          -0.3171   -1.5283    8.7414 C.3     1  UNL1        0.0000
     65 H          -0.8828   -1.0455    7.9480 H       1  UNL1        0.0000
     66 H          -0.9893   -1.7213    9.5759 H       1  UNL1        0.0000
     67 H           0.0435   -2.4874    8.3770 H       1  UNL1        0.0000
     68 C           1.7335   -1.3775   10.1905 C.3     1  UNL1        0.0000
     69 H           2.4389   -0.6822   10.6468 H       1  UNL1        0.0000
     70 H           2.2869   -2.1686    9.6860 H       1  UNL1        0.0000
     71 H           1.1363   -1.8282   10.9812 H       1  UNL1        0.0000
     72 C           3.2896    3.1963    6.9639 C.3     1  UNL1        0.0000
     73 H           3.1286    3.6455    7.9721 H       1  UNL1        0.0000
     74 C           4.7638    3.3817    6.5850 C.3     1  UNL1        0.0000
     75 H           5.4105    2.8244    7.2584 H       1  UNL1        0.0000
     76 H           5.0277    4.4378    6.6315 H       1  UNL1        0.0000
     77 H           4.9486    3.0390    5.5683 H       1  UNL1        0.0000
     78 C           2.4186    3.9192    5.9282 C.3     1  UNL1        0.0000
     79 H           1.3643    3.7865    6.1544 H       1  UNL1        0.0000
     80 H           2.6005    3.5084    4.9365 H       1  UNL1        0.0000
     81 H           2.6443    4.9821    5.9068 H       1  UNL1        0.0000
@<TRIPOS>BOND
     1    80    78    1
     2    58    57    1
     3    60    59    1
     4    77    74    1
     5    57    59   ar
     6    57    55   ar
     7    81    78    1
     8    78    79    1
     9    78    72    1
    10    59    61   ar
    11    74    76    1
    12    74    72    1
    13    74    75    1
    14    51    49    1
    15    48    45    1
    16    56    55    1
    17    11    10    1
    18    55    54   ar
    19    72    61    1
    20    72    73    1
    21    61    53   ar
    22    13    10    1
    23    49    52    1
    24    49    50    1
    25    49    43    1
    26     5     4    1
    27    10     4    1
    28    10    12    1
    29    65    64    1
    30    45    47    1
    31    45    43    1
    32    45    46    1
    33    54    53   ar
    34    54    62    1
    35    53     3    1
    36     7     6    1
    37    44    43    1
    38    67    64    1
    39    43    32    1
    40     4     6    1
    41     4     1    1
    42    64    62    1
    43    64    66    1
    44     6     8    1
    45     6     9    1
    46    62    63    1
    47    62    68    1
    48     3     1    1
    49    70    68    1
    50     1     2    1
    51     1    14    1
    52    31    30    1
    53    32    30   ar
    54    32    24   ar
    55    68    69    1
    56    68    71    1
    57     2    24    1
    58    30    28   ar
    59    18    16    1
    60    24    25   ar
    61    19    16    1
    62    16    14    1
    63    16    17    1
    64    14    15    1
    65    14    20    1
    66    28    29    1
    67    28    26   ar
    68    23    20    1
    69    22    20    1
    70    25    26   ar
    71    25    33    1
    72    20    21    1
    73    34    33    1
    74    26    27    1
    75    42    39    1
    76    33    39    1
    77    33    35    1
    78    39    41    1
    79    39    40    1
    80    37    35    1
    81    35    36    1
    82    35    38    1
