@<TRIPOS>MOLECULE
4,5
 33 32 0 0 0
SMALL
GASTEIGER

@<TRIPOS>ATOM
      1 S           2.3432    1.5314    5.8042 S.3     1  UNL1        0.0000
      2 SI          0.0408    2.7656    6.8308 Si      1  UNL1        0.0000
      3 SI          4.7255    1.5101    4.3032 Si      1  UNL1        0.0000
      4 N           0.8928    2.1565    5.4564 N.3     1  UNL1        0.0000
      5 N           2.9997    1.5894    4.3272 N.3     1  UNL1        0.0000
      6 C          -1.8302    2.8673    6.4690 C.3     1  UNL1        0.0000
      7 H          -2.0507    3.4715    5.5973 H       1  UNL1        0.0000
      8 H          -2.3288    3.3237    7.3169 H       1  UNL1        0.0000
      9 H          -2.2756    1.8895    6.3177 H       1  UNL1        0.0000
     10 C           0.7198    4.4718    7.3823 C.3     1  UNL1        0.0000
     11 H           0.5081    5.2431    6.6496 H       1  UNL1        0.0000
     12 H           1.7979    4.4367    7.5172 H       1  UNL1        0.0000
     13 H           0.2795    4.7859    8.3231 H       1  UNL1        0.0000
     14 C           0.2391    1.6295    8.3633 C.3     1  UNL1        0.0000
     15 H          -0.2535    0.6704    8.2314 H       1  UNL1        0.0000
     16 H          -0.1965    2.0920    9.2429 H       1  UNL1        0.0000
     17 H           1.2872    1.4395    8.5778 H       1  UNL1        0.0000
     18 C           5.5226    3.2165    4.6674 C.3     1  UNL1        0.0000
     19 H           5.5099    3.8580    3.7931 H       1  UNL1        0.0000
     20 H           6.5575    3.1095    4.9762 H       1  UNL1        0.0000
     21 H           4.9917    3.7358    5.4613 H       1  UNL1        0.0000
     22 C           5.4078    0.3359    5.6562 C.3     1  UNL1        0.0000
     23 H           5.1451   -0.7012    5.4698 H       1  UNL1        0.0000
     24 H           5.0245    0.6054    6.6365 H       1  UNL1        0.0000
     25 H           6.4908    0.3868    5.7013 H       1  UNL1        0.0000
     26 C           5.3144    0.8274    2.6201 C.3     1  UNL1        0.0000
     27 H           4.7616    1.2508    1.7894 H       1  UNL1        0.0000
     28 H           5.2230   -0.2526    2.5635 H       1  UNL1        0.0000
     29 H           6.3613    1.0718    2.4790 H       1  UNL1        0.0000
     30 C           1.9354   -0.2732    5.9290 C.3     1  UNL1        0.0000
     31 H           1.4417   -0.5638    5.0131 H       1  UNL1        0.0000
     32 H           1.2867   -0.4174    6.7837 H       1  UNL1        0.0000
     33 H           2.8626   -0.8179    6.0578 H       1  UNL1        0.0000
@<TRIPOS>BOND
     1    27    26    1
     2    29    26    1
     3    28    26    1
     4    26     3    1
     5    19    18    1
     6     3     5    1
     7     3    18    1
     8     3    22    1
     9     5     1    1
    10    18    20    1
    11    18    21    1
    12    31    30    1
    13     4     1    1
    14     4     2    1
    15    23    22    1
    16     7     6    1
    17    22    25    1
    18    22    24    1
    19     1    30    1
    20    30    33    1
    21    30    32    1
    22     9     6    1
    23     6     2    1
    24     6     8    1
    25    11    10    1
    26     2    10    1
    27     2    14    1
    28    10    12    1
    29    10    13    1
    30    15    14    1
    31    14    17    1
    32    14    16    1
