@<TRIPOS>MOLECULE
4,5
 33 32 0 0 0
SMALL
GASTEIGER

@<TRIPOS>ATOM
      1 S           2.3545    1.4758    5.8192 S.3     1  UNL1        0.0000
      2 SI          0.0655    2.7542    6.8173 Si      1  UNL1        0.0000
      3 SI          4.7223    1.5219    4.3042 Si      1  UNL1        0.0000
      4 N           0.8970    2.0766    5.4687 N.3     1  UNL1        0.0000
      5 N           2.9999    1.4937    4.3373 N.3     1  UNL1        0.0000
      6 C          -1.8011    2.8957    6.4360 C.3     1  UNL1        0.0000
      7 H          -1.9896    3.3978    5.4939 H       1  UNL1        0.0000
      8 H          -2.2809    3.4723    7.2190 H       1  UNL1        0.0000
      9 H          -2.2879    1.9263    6.4022 H       1  UNL1        0.0000
     10 C           0.8010    4.4527    7.3301 C.3     1  UNL1        0.0000
     11 H           0.5064    5.2389    6.6429 H       1  UNL1        0.0000
     12 H           1.8881    4.4156    7.3371 H       1  UNL1        0.0000
     13 H           0.4730    4.7472    8.3219 H       1  UNL1        0.0000
     14 C           0.2253    1.6500    8.3814 C.3     1  UNL1        0.0000
     15 H          -0.2504    0.6826    8.2503 H       1  UNL1        0.0000
     16 H          -0.2426    2.1208    9.2395 H       1  UNL1        0.0000
     17 H           1.2683    1.4759    8.6309 H       1  UNL1        0.0000
     18 C           5.3998    3.2873    4.6541 C.3     1  UNL1        0.0000
     19 H           5.6306    3.8153    3.7347 H       1  UNL1        0.0000
     20 H           6.3080    3.2612    5.2487 H       1  UNL1        0.0000
     21 H           4.6616    3.8783    5.1945 H       1  UNL1        0.0000
     22 C           5.4744    0.4039    5.6725 C.3     1  UNL1        0.0000
     23 H           5.2325   -0.6438    5.5213 H       1  UNL1        0.0000
     24 H           5.1059    0.6904    6.6536 H       1  UNL1        0.0000
     25 H           6.5563    0.4820    5.6914 H       1  UNL1        0.0000
     26 C           5.3321    0.8343    2.6276 C.3     1  UNL1        0.0000
     27 H           4.7453    1.2114    1.7968 H       1  UNL1        0.0000
     28 H           5.2967   -0.2501    2.5969 H       1  UNL1        0.0000
     29 H           6.3632    1.1291    2.4679 H       1  UNL1        0.0000
     30 C           1.9577   -0.3320    5.9758 C.3     1  UNL1        0.0000
     31 H           1.4520   -0.6306    5.0668 H       1  UNL1        0.0000
     32 H           1.3218   -0.4710    6.8414 H       1  UNL1        0.0000
     33 H           2.8898   -0.8710    6.0968 H       1  UNL1        0.0000
@<TRIPOS>BOND
     1    27    26    1
     2    29    26    1
     3    28    26    1
     4    26     3    1
     5    19    18    1
     6     3     5    1
     7     3    18    1
     8     3    22    1
     9     5     1    1
    10    18    21    1
    11    18    20    1
    12    31    30    1
    13     4     1    1
    14     4     2    1
    15     7     6    1
    16    23    22    1
    17    22    25    1
    18    22    24    1
    19     1    30    1
    20    30    33    1
    21    30    32    1
    22     9     6    1
    23     6     2    1
    24     6     8    1
    25    11    10    1
    26     2    10    1
    27     2    14    1
    28    10    12    1
    29    10    13    1
    30    15    14    1
    31    14    17    1
    32    14    16    1
