@<TRIPOS>MOLECULE
1,33
 33 32 0 0 0
SMALL
GASTEIGER

@<TRIPOS>ATOM
      1 N          11.3665   11.1422    2.3416 N.3     1  UNL1        0.0000
      2 SI         13.0686   11.4255    2.2532 Si      1  UNL1        0.0000
      3 S          10.9795    9.5770    2.3556 S.3     1  UNL1        0.0000
      4 SI          8.8098    8.2643    1.1888 Si      1  UNL1        0.0000
      5 C          14.0255   10.2296    3.4133 C.3     1  UNL1        0.0000
      6 H          13.7852    9.1926    3.1955 H       1  UNL1        0.0000
      7 H          13.8062   10.4112    4.4616 H       1  UNL1        0.0000
      8 H          15.0966   10.3504    3.2878 H       1  UNL1        0.0000
      9 C          13.7540   11.0691    0.4926 C.3     1  UNL1        0.0000
     10 H          13.1584   10.3031   -0.0014 H       1  UNL1        0.0000
     11 H          14.7823   10.7224    0.5241 H       1  UNL1        0.0000
     12 H          13.7303   11.9551   -0.1338 H       1  UNL1        0.0000
     13 C          13.5415   13.1867    2.8229 C.3     1  UNL1        0.0000
     14 H          14.6223   13.2543    2.8818 H       1  UNL1        0.0000
     15 H          13.1458   13.4294    3.8037 H       1  UNL1        0.0000
     16 H          13.2078   13.9495    2.1294 H       1  UNL1        0.0000
     17 C           9.3390    6.7359    2.2259 C.3     1  UNL1        0.0000
     18 H           9.0193    5.8176    1.7442 H       1  UNL1        0.0000
     19 H           8.9006    6.7422    3.2196 H       1  UNL1        0.0000
     20 H          10.4189    6.6890    2.3365 H       1  UNL1        0.0000
     21 C           6.8993    8.2471    1.1830 C.3     1  UNL1        0.0000
     22 H           6.4808    8.9594    0.4818 H       1  UNL1        0.0000
     23 H           6.4767    8.4522    2.1612 H       1  UNL1        0.0000
     24 H           6.5616    7.2613    0.8824 H       1  UNL1        0.0000
     25 C           9.5065    7.9396   -0.5738 C.3     1  UNL1        0.0000
     26 H           9.6058    6.8780   -0.7779 H       1  UNL1        0.0000
     27 H          10.4894    8.3945   -0.6854 H       1  UNL1        0.0000
     28 H           8.8642    8.3580   -1.3420 H       1  UNL1        0.0000
     29 C          10.7402    9.2872    4.1746 C.3     1  UNL1        0.0000
     30 H          10.2933    8.3096    4.3068 H       1  UNL1        0.0000
     31 H          10.0883   10.0665    4.5444 H       1  UNL1        0.0000
     32 H          11.7097    9.3297    4.6555 H       1  UNL1        0.0000
     33 N           9.4498    9.7205    1.8642 N.3     1  UNL1        0.0000
@<TRIPOS>BOND
     1    28    25    1
     2    26    25    1
     3    27    25    1
     4    25     4    1
     5    12     9    1
     6    10     9    1
     7    22    21    1
     8     9    11    1
     9     9     2    1
    10    24    21    1
    11    21     4    1
    12    21    23    1
    13     4    33    1
    14     4    17    1
    15    18    17    1
    16    33     3    1
    17    16    13    1
    18    17    20    1
    19    17    19    1
    20     2     1    1
    21     2    13    1
    22     2     5    1
    23     1     3    1
    24     3    29    1
    25    13    14    1
    26    13    15    1
    27     6     5    1
    28     8     5    1
    29     5     7    1
    30    29    30    1
    31    29    31    1
    32    29    32    1
