@<TRIPOS>MOLECULE
1,2
 24 23 0 0 0
SMALL
GASTEIGER

@<TRIPOS>ATOM
      1 N           8.8049   19.8238   -1.1493 N.3     1  UNL1       -0.3071
      2 N           6.8308   17.6620   -1.6743 N.3     1  UNL1       -0.3071
      3 C           6.9415   16.2691   -2.1133 C.3     1  UNL1       -0.0130
      4 H           7.9826   16.0201   -2.3181 H       1  UNL1        0.0391
      5 H           6.3400   16.0959   -3.0196 H       1  UNL1        0.0391
      6 H           6.5854   15.6229   -1.3112 H       1  UNL1        0.0391
      7 C           5.4145   17.9186   -1.4080 C.3     1  UNL1       -0.0130
      8 H           5.1073   17.3479   -0.5316 H       1  UNL1        0.0391
      9 H           4.8020   17.6282   -2.2763 H       1  UNL1        0.0391
     10 H           5.2500   18.9691   -1.1873 H       1  UNL1        0.0391
     11 C          10.1014   19.6854   -1.8132 C.3     1  UNL1       -0.0130
     12 H          10.3360   20.5881   -2.3993 H       1  UNL1        0.0391
     13 H          10.1085   18.8216   -2.4739 H       1  UNL1        0.0391
     14 H          10.8723   19.5370   -1.0568 H       1  UNL1        0.0391
     15 C           8.8631   21.0387   -0.3310 C.3     1  UNL1       -0.0130
     16 H           7.9391   21.1533    0.2324 H       1  UNL1        0.0391
     17 H           9.0308   21.9245   -0.9631 H       1  UNL1        0.0391
     18 H           9.6785   20.9422    0.3850 H       1  UNL1        0.0391
     19 C           7.7259   19.9313   -2.1353 C.3     1  UNL1        0.0111
     20 H           8.0204   20.6018   -2.9627 H       1  UNL1        0.0439
     21 H           6.8581   20.3596   -1.6280 H       1  UNL1        0.0439
     22 C           7.3375   18.5650   -2.7120 C.3     1  UNL1        0.0111
     23 H           8.2193   18.1006   -3.1626 H       1  UNL1        0.0439
     24 H           6.5829   18.7113   -3.5043 H       1  UNL1        0.0439
@<TRIPOS>BOND
     1    24    22    1
     2    23    22    1
     3     5     3    1
     4    20    19    1
     5    22    19    1
     6    22     2    1
     7    13    11    1
     8    12    11    1
     9     4     3    1
    10     9     7    1
    11    19    21    1
    12    19     1    1
    13     3     2    1
    14     3     6    1
    15    11     1    1
    16    11    14    1
    17     2     7    1
    18     7    10    1
    19     7     8    1
    20     1    15    1
    21    17    15    1
    22    15    16    1
    23    15    18    1
