@<TRIPOS>MOLECULE
3,4
 64 65 0 0 0
SMALL
GASTEIGER

@<TRIPOS>ATOM
      1 SI         18.0501   10.1635    1.4229 Si      1  UNL1        0.0000
      2 SI         18.7433   12.2574    3.6472 Si      1  UNL1        0.0000
      3 N          15.5000   11.1283    3.7319 N.3     1  UNL1        0.0000
      4 N          16.8229    9.7104    4.7761 N.3     1  UNL1        0.0000
      5 N          17.7655   10.9731    2.9588 N.3     1  UNL1        0.0000
      6 C          14.8926   13.4421    3.2106 C.3     1  UNL1        0.0000
      7 C          14.3199   14.3592    2.1346 C.3     1  UNL1        0.0000
      8 C          12.9871   13.8205    1.6234 C.3     1  UNL1        0.0000
      9 C          13.1629   12.4091    1.0707 C.3     1  UNL1        0.0000
     10 C          13.7474   11.4809    2.1315 C.3     1  UNL1        0.0000
     11 C          15.0808   12.0166    2.6724 C.3     1  UNL1        0.0000
     12 C          18.3679    8.7744    6.4115 C.3     1  UNL1        0.0000
     13 C          19.5294    7.8076    6.6217 C.3     1  UNL1        0.0000
     14 C          19.1625    6.4173    6.1137 C.3     1  UNL1        0.0000
     15 C          18.7971    6.4812    4.6344 C.3     1  UNL1        0.0000
     16 C          17.6314    7.4418    4.4229 C.3     1  UNL1        0.0000
     17 C          17.9813    8.8510    4.9293 C.3     1  UNL1        0.0000
     18 C          16.7064   10.5812    3.7873 C.3     1  UNL1        0.0000
     19 C          19.4383    8.8542    1.5586 C.3     1  UNL1        0.0000
     20 C          18.6693   11.4841    0.1913 C.3     1  UNL1        0.0000
     21 C          16.4921    9.3678    0.6888 C.3     1  UNL1        0.0000
     22 C          18.1286   12.6263    5.4118 C.3     1  UNL1        0.0000
     23 C          20.5750   11.7280    3.7200 C.3     1  UNL1        0.0000
     24 C          18.6273   13.8605    2.6090 C.3     1  UNL1        0.0000
     25 H          14.2140   13.3995    4.0666 H       1  UNL1        0.0000
     26 H          15.8519   13.8239    3.5650 H       1  UNL1        0.0000
     27 H          14.1858   15.3648    2.5394 H       1  UNL1        0.0000
     28 H          15.0249   14.4265    1.3019 H       1  UNL1        0.0000
     29 H          12.5942   14.4789    0.8454 H       1  UNL1        0.0000
     30 H          12.2675   13.8015    2.4436 H       1  UNL1        0.0000
     31 H          13.8348   12.4412    0.2092 H       1  UNL1        0.0000
     32 H          12.2021   12.0195    0.7287 H       1  UNL1        0.0000
     33 H          13.0601   11.3832    2.9833 H       1  UNL1        0.0000
     34 H          13.9054   10.4817    1.7150 H       1  UNL1        0.0000
     35 H          15.8313   12.0345    1.8669 H       1  UNL1        0.0000
     36 H          17.4937    8.4314    6.9739 H       1  UNL1        0.0000
     37 H          18.6416    9.7696    6.7712 H       1  UNL1        0.0000
     38 H          20.4098    8.1704    6.0837 H       1  UNL1        0.0000
     39 H          19.7816    7.7628    7.6833 H       1  UNL1        0.0000
     40 H          19.9984    5.7307    6.2655 H       1  UNL1        0.0000
     41 H          18.3065    6.0440    6.6784 H       1  UNL1        0.0000
     42 H          18.5224    5.4880    4.2743 H       1  UNL1        0.0000
     43 H          19.6647    6.8194    4.0614 H       1  UNL1        0.0000
     44 H          17.3572    7.4935    3.3655 H       1  UNL1        0.0000
     45 H          16.7582    7.0798    4.9780 H       1  UNL1        0.0000
     46 H          18.8240    9.2504    4.3457 H       1  UNL1        0.0000
     47 H          19.0638    7.8918    1.8913 H       1  UNL1        0.0000
     48 H          20.2290    9.1543    2.2388 H       1  UNL1        0.0000
     49 H          19.8905    8.7027    0.5829 H       1  UNL1        0.0000
     50 H          17.9916   12.3249    0.0933 H       1  UNL1        0.0000
     51 H          18.7730   11.0339   -0.7905 H       1  UNL1        0.0000
     52 H          19.6409   11.8745    0.4717 H       1  UNL1        0.0000
     53 H          15.8566   10.0969    0.1944 H       1  UNL1        0.0000
     54 H          15.8932    8.8628    1.4407 H       1  UNL1        0.0000
     55 H          16.7691    8.6261   -0.0550 H       1  UNL1        0.0000
     56 H          18.6345   12.0044    6.1441 H       1  UNL1        0.0000
     57 H          17.0635   12.4196    5.4831 H       1  UNL1        0.0000
     58 H          18.2967   13.6629    5.6896 H       1  UNL1        0.0000
     59 H          20.7383   10.8687    4.3632 H       1  UNL1        0.0000
     60 H          21.1776   12.5433    4.1071 H       1  UNL1        0.0000
     61 H          20.9550   11.4828    2.7341 H       1  UNL1        0.0000
     62 H          17.6790   13.9652    2.0930 H       1  UNL1        0.0000
     63 H          19.4108   13.8926    1.8603 H       1  UNL1        0.0000
     64 H          18.7558   14.7343    3.2409 H       1  UNL1        0.0000
@<TRIPOS>BOND
     1    51    20    1
     2    55    21    1
     3    50    20    1
     4    20    52    1
     5    20     1    1
     6    53    21    1
     7    31     9    1
     8    49    19    1
     9    21     1    1
    10    21    54    1
    11    32     9    1
    12    29     8    1
    13     9     8    1
    14     9    10    1
    15    28     7    1
    16     1    19    1
    17     1     5    1
    18    19    47    1
    19    19    48    1
    20     8     7    1
    21     8    30    1
    22    34    10    1
    23    63    24    1
    24    35    11    1
    25    62    24    1
    26    10    11    1
    27    10    33    1
    28     7    27    1
    29     7     6    1
    30    24    64    1
    31    24     2    1
    32    11     6    1
    33    11     3    1
    34    61    23    1
    35     5     2    1
    36     5    18    1
    37     6    26    1
    38     6    25    1
    39    44    16    1
    40     2    23    1
    41     2    22    1
    42    23    60    1
    43    23    59    1
    44     3    18    1
    45    18     4    1
    46    43    15    1
    47    42    15    1
    48    46    17    1
    49    16    15    1
    50    16    17    1
    51    16    45    1
    52    15    14    1
    53     4    17    1
    54    17    12    1
    55    22    57    1
    56    22    58    1
    57    22    56    1
    58    38    13    1
    59    14    40    1
    60    14    13    1
    61    14    41    1
    62    12    13    1
    63    12    37    1
    64    12    36    1
    65    13    39    1
