@<TRIPOS>MOLECULE
3,4
 64 65 0 0 0
SMALL
GASTEIGER

@<TRIPOS>ATOM
      1 SI         10.7896   12.2104    6.8047 Si      1  UNL1        0.0000
      2 SI         11.3608    9.7516    8.6573 Si      1  UNL1        0.0000
      3 N          12.5798    9.7799    5.2702 N.3     1  UNL1        0.0000
      4 N          13.9689   10.9424    6.5230 N.3     1  UNL1        0.0000
      5 N          11.6951   10.7811    7.2703 N.3     1  UNL1        0.0000
      6 C          10.9982    9.1977    3.5102 C.3     1  UNL1        0.0000
      7 C           9.7895    8.3384    3.1517 C.3     1  UNL1        0.0000
      8 C          10.0814    6.8678    3.4301 C.3     1  UNL1        0.0000
      9 C          10.4414    6.6759    4.8997 C.3     1  UNL1        0.0000
     10 C          11.6537    7.5291    5.2588 C.3     1  UNL1        0.0000
     11 C          11.3794    9.0173    4.9848 C.3     1  UNL1        0.0000
     12 C          14.6925   13.1067    7.4101 C.3     1  UNL1        0.0000
     13 C          15.3077   13.8063    8.6180 C.3     1  UNL1        0.0000
     14 C          16.6086   13.1238    9.0298 C.3     1  UNL1        0.0000
     15 C          16.3580   11.6522    9.3463 C.3     1  UNL1        0.0000
     16 C          15.7316   10.9401    8.1510 C.3     1  UNL1        0.0000
     17 C          14.4294   11.6242    7.7106 C.3     1  UNL1        0.0000
     18 C          12.7363   10.4737    6.3854 C.3     1  UNL1        0.0000
     19 C          11.4246   12.8225    5.1169 C.3     1  UNL1        0.0000
     20 C           8.9320   11.7995    6.6616 C.3     1  UNL1        0.0000
     21 C          10.9934   13.6166    8.0866 C.3     1  UNL1        0.0000
     22 C           9.9049    8.5577    8.3184 C.3     1  UNL1        0.0000
     23 C          10.8069   10.8884   10.0875 C.3     1  UNL1        0.0000
     24 C          12.8714    8.7662    9.2460 C.3     1  UNL1        0.0000
     25 H          10.7785   10.2503    3.3141 H       1  UNL1        0.0000
     26 H          11.8568    8.9036    2.8983 H       1  UNL1        0.0000
     27 H           9.5410    8.4768    2.0973 H       1  UNL1        0.0000
     28 H           8.9261    8.6558    3.7433 H       1  UNL1        0.0000
     29 H           9.2122    6.2583    3.1729 H       1  UNL1        0.0000
     30 H          10.9202    6.5456    2.8108 H       1  UNL1        0.0000
     31 H          10.6628    5.6252    5.0957 H       1  UNL1        0.0000
     32 H           9.5891    6.9624    5.5216 H       1  UNL1        0.0000
     33 H          12.5107    7.2163    4.6511 H       1  UNL1        0.0000
     34 H          11.9235    7.3974    6.3104 H       1  UNL1        0.0000
     35 H          10.5550    9.3617    5.6267 H       1  UNL1        0.0000
     36 H          15.3710   13.1689    6.5552 H       1  UNL1        0.0000
     37 H          13.7553   13.5897    7.1273 H       1  UNL1        0.0000
     38 H          15.4956   14.8558    8.3806 H       1  UNL1        0.0000
     39 H          14.6036   13.7747    9.4536 H       1  UNL1        0.0000
     40 H          17.0312   13.6258    9.9030 H       1  UNL1        0.0000
     41 H          17.3301   13.2013    8.2147 H       1  UNL1        0.0000
     42 H          15.6846   11.5783   10.2040 H       1  UNL1        0.0000
     43 H          17.2960   11.1633    9.6168 H       1  UNL1        0.0000
     44 H          16.4166   10.9478    7.2918 H       1  UNL1        0.0000
     45 H          15.5213    9.8957    8.3997 H       1  UNL1        0.0000
     46 H          13.6780   11.5493    8.5121 H       1  UNL1        0.0000
     47 H          12.4806   12.5860    5.0109 H       1  UNL1        0.0000
     48 H          11.2996   13.8956    5.0033 H       1  UNL1        0.0000
     49 H          10.8962   12.3425    4.2988 H       1  UNL1        0.0000
     50 H           8.7229   11.0664    5.8885 H       1  UNL1        0.0000
     51 H           8.3753   12.6983    6.4167 H       1  UNL1        0.0000
     52 H           8.5378   11.4181    7.5974 H       1  UNL1        0.0000
     53 H          11.9362   13.5708    8.6206 H       1  UNL1        0.0000
     54 H          10.1996   13.5831    8.8244 H       1  UNL1        0.0000
     55 H          10.9364   14.5870    7.6026 H       1  UNL1        0.0000
     56 H           9.1362    9.0044    7.6959 H       1  UNL1        0.0000
     57 H           9.4385    8.2785    9.2585 H       1  UNL1        0.0000
     58 H          10.2289    7.6412    7.8366 H       1  UNL1        0.0000
     59 H          11.5331   11.6581   10.3243 H       1  UNL1        0.0000
     60 H          10.6634   10.2909   10.9818 H       1  UNL1        0.0000
     61 H           9.8646   11.3791    9.8724 H       1  UNL1        0.0000
     62 H          13.5414    9.3706    9.8508 H       1  UNL1        0.0000
     63 H          13.4475    8.3603    8.4196 H       1  UNL1        0.0000
     64 H          12.5523    7.9286    9.8596 H       1  UNL1        0.0000
@<TRIPOS>BOND
     1    27     7    1
     2    30     8    1
     3    26     6    1
     4     7     8    1
     5     7     6    1
     6     7    28    1
     7    29     8    1
     8    25     6    1
     9     8     9    1
    10     6    11    1
    11    49    19    1
    12    33    10    1
    13     9    31    1
    14     9    10    1
    15     9    32    1
    16    11    10    1
    17    11     3    1
    18    11    35    1
    19    48    19    1
    20    47    19    1
    21    19     1    1
    22    10    34    1
    23     3    18    1
    24    50    20    1
    25    18     4    1
    26    18     5    1
    27    51    20    1
    28     4    17    1
    29    36    12    1
    30    20     1    1
    31    20    52    1
    32     1     5    1
    33     1    21    1
    34    37    12    1
    35     5     2    1
    36    44    16    1
    37    12    17    1
    38    12    13    1
    39    55    21    1
    40    56    22    1
    41    17    16    1
    42    17    46    1
    43    58    22    1
    44    21    53    1
    45    21    54    1
    46    16    45    1
    47    16    15    1
    48    41    14    1
    49    22     2    1
    50    22    57    1
    51    38    13    1
    52    63    24    1
    53    13    14    1
    54    13    39    1
    55     2    24    1
    56     2    23    1
    57    14    15    1
    58    14    40    1
    59    24    62    1
    60    24    64    1
    61    15    43    1
    62    15    42    1
    63    61    23    1
    64    23    59    1
    65    23    60    1
