@<TRIPOS>MOLECULE
3,4
 64 65 0 0 0
SMALL
GASTEIGER

@<TRIPOS>ATOM
      1 SI          2.2257    3.6043   17.4138 Si      1  UNL1        0.0000
      2 SI          0.7472    6.2614   16.5110 Si      1  UNL1        0.0000
      3 N          -1.0063    3.8429   18.4151 N.3     1  UNL1        0.0000
      4 N           0.3248    4.9951   19.7986 N.3     1  UNL1        0.0000
      5 N           0.9789    4.8342   17.5048 N.3     1  UNL1        0.0000
      6 C          -2.8878    4.0079   16.8862 C.3     1  UNL1        0.0000
      7 H          -3.5327    3.5783   17.6594 H       1  UNL1        0.0000
      8 H          -2.8816    5.0924   17.0173 H       1  UNL1        0.0000
      9 C          -3.4265    3.6596   15.5017 C.3     1  UNL1        0.0000
     10 H          -2.8273    4.1675   14.7418 H       1  UNL1        0.0000
     11 H          -4.4547    4.0159   15.4065 H       1  UNL1        0.0000
     12 C          -3.3710    2.1553   15.2567 C.3     1  UNL1        0.0000
     13 H          -4.0230    1.6447   15.9690 H       1  UNL1        0.0000
     14 H          -3.7315    1.9287   14.2511 H       1  UNL1        0.0000
     15 C          -1.9420    1.6498   15.4264 C.3     1  UNL1        0.0000
     16 H          -1.2987    2.1310   14.6851 H       1  UNL1        0.0000
     17 H          -1.9041    0.5718   15.2531 H       1  UNL1        0.0000
     18 C          -1.4345    1.9644   16.8312 C.3     1  UNL1        0.0000
     19 H          -2.0735    1.4586   17.5571 H       1  UNL1        0.0000
     20 H          -0.4153    1.5923   16.9552 H       1  UNL1        0.0000
     21 C          -1.4594    3.4780   17.0830 C.3     1  UNL1        0.0000
     22 H          -0.8099    3.9473   16.3337 H       1  UNL1        0.0000
     23 C           0.7482    7.1370   20.8612 C.3     1  UNL1        0.0000
     24 H           0.3913    6.7483   21.8198 H       1  UNL1        0.0000
     25 H          -0.1147    7.5345   20.3256 H       1  UNL1        0.0000
     26 C           1.7759    8.2400   21.0928 C.3     1  UNL1        0.0000
     27 H           2.0793    8.6595   20.1300 H       1  UNL1        0.0000
     28 H           1.3255    9.0433   21.6791 H       1  UNL1        0.0000
     29 C           3.0036    7.6924   21.8143 C.3     1  UNL1        0.0000
     30 H           2.7132    7.3447   22.8079 H       1  UNL1        0.0000
     31 H           3.7473    8.4823   21.9398 H       1  UNL1        0.0000
     32 C           3.6043    6.5296   21.0300 C.3     1  UNL1        0.0000
     33 H           4.4690    6.1281   21.5634 H       1  UNL1        0.0000
     34 H           3.9514    6.8912   20.0584 H       1  UNL1        0.0000
     35 C           2.5637    5.4298   20.8311 C.3     1  UNL1        0.0000
     36 H           3.0008    4.5874   20.2926 H       1  UNL1        0.0000
     37 H           2.2329    5.0809   21.8104 H       1  UNL1        0.0000
     38 C           1.3580    5.9823   20.0574 C.3     1  UNL1        0.0000
     39 H           1.7241    6.3799   19.1008 H       1  UNL1        0.0000
     40 C           0.0764    4.5842   18.5647 C.3     1  UNL1        0.0000
     41 C           1.9618    2.3075   18.7985 C.3     1  UNL1        0.0000
     42 H           1.3395    1.4860   18.4522 H       1  UNL1        0.0000
     43 H           1.4772    2.7356   19.6842 H       1  UNL1        0.0000
     44 H           2.9101    1.8762   19.1090 H       1  UNL1        0.0000
     45 C           2.1714    2.7285   15.7172 C.3     1  UNL1        0.0000
     46 H           2.5454    3.3833   14.9368 H       1  UNL1        0.0000
     47 H           1.1770    2.4058   15.4289 H       1  UNL1        0.0000
     48 H           2.8106    1.8514   15.7319 H       1  UNL1        0.0000
     49 C           3.9693    4.3686   17.5732 C.3     1  UNL1        0.0000
     50 H           4.3137    4.7299   16.6104 H       1  UNL1        0.0000
     51 H           4.6819    3.6196   17.9038 H       1  UNL1        0.0000
     52 H           4.0170    5.1984   18.2682 H       1  UNL1        0.0000
     53 C           0.2167    5.8101   14.7293 C.3     1  UNL1        0.0000
     54 H          -0.8478    5.6111   14.6503 H       1  UNL1        0.0000
     55 H           0.7453    4.9406   14.3528 H       1  UNL1        0.0000
     56 H           0.4380    6.6385   14.0634 H       1  UNL1        0.0000
     57 C           2.3796    7.2360   16.3601 C.3     1  UNL1        0.0000
     58 H           3.1138    6.6878   15.7804 H       1  UNL1        0.0000
     59 H           2.8280    7.4735   17.3189 H       1  UNL1        0.0000
     60 H           2.1955    8.1737   15.8458 H       1  UNL1        0.0000
     61 C          -0.5978    7.3338   17.3274 C.3     1  UNL1        0.0000
     62 H          -1.1578    6.7538   18.0556 H       1  UNL1        0.0000
     63 H          -1.2986    7.7217   16.5941 H       1  UNL1        0.0000
     64 H          -0.1710    8.1850   17.8495 H       1  UNL1        0.0000
@<TRIPOS>BOND
     1    56    53    1
     2    14    12    1
     3    55    53    1
     4    54    53    1
     5    16    15    1
     6    53     2    1
     7    10     9    1
     8    46    45    1
     9    17    15    1
    10    12    15    1
    11    12     9    1
    12    12    13    1
    13    11     9    1
    14    15    18    1
    15    47    45    1
    16     9     6    1
    17    45    48    1
    18    45     1    1
    19    58    57    1
    20    60    57    1
    21    22    21    1
    22    57     2    1
    23    57    59    1
    24     2    61    1
    25     2     5    1
    26    63    61    1
    27    50    49    1
    28    18    20    1
    29    18    21    1
    30    18    19    1
    31     6     8    1
    32     6    21    1
    33     6     7    1
    34    21     3    1
    35    61    64    1
    36    61    62    1
    37     1     5    1
    38     1    49    1
    39     1    41    1
    40     5    40    1
    41    49    51    1
    42    49    52    1
    43     3    40    1
    44    42    41    1
    45    40     4    1
    46    41    44    1
    47    41    43    1
    48    39    38    1
    49     4    38    1
    50    38    35    1
    51    38    23    1
    52    34    32    1
    53    27    26    1
    54    36    35    1
    55    25    23    1
    56    35    32    1
    57    35    37    1
    58    23    26    1
    59    23    24    1
    60    32    33    1
    61    32    29    1
    62    26    28    1
    63    26    29    1
    64    29    31    1
    65    29    30    1
