@<TRIPOS>MOLECULE
1,13
 50 49 0 0 0
SMALL
GASTEIGER

@<TRIPOS>ATOM
      1 N          -0.7380    1.4726   14.9143 N.3     1  UNL1        0.0000
      2 C          -0.2683    0.6758   16.0265 C.3     1  UNL1        0.0000
      3 H          -0.9980    0.7050   16.8509 H       1  UNL1        0.0000
      4 C           1.0603    1.2918   16.4821 C.3     1  UNL1        0.0000
      5 H           0.8919    2.2948   16.8738 H       1  UNL1        0.0000
      6 H           1.7248    1.3687   15.6159 H       1  UNL1        0.0000
      7 H           1.5298    0.6820   17.2516 H       1  UNL1        0.0000
      8 C          -0.0716   -0.7809   15.5884 C.3     1  UNL1        0.0000
      9 H          -1.0206   -1.2142   15.2833 H       1  UNL1        0.0000
     10 H           0.3402   -1.3698   16.4049 H       1  UNL1        0.0000
     11 H           0.6126   -0.8188   14.7431 H       1  UNL1        0.0000
     12 C          -1.9592    1.9830   14.8448 C.3     1  UNL1        0.0000
     13 N          -2.1189    2.7766   13.7985 N.3     1  UNL1        0.0000
     14 C          -3.3048    3.5936   13.6127 C.3     1  UNL1        0.0000
     15 H          -4.1135    3.2220   14.2589 H       1  UNL1        0.0000
     16 C          -3.7425    3.5285   12.1465 C.3     1  UNL1        0.0000
     17 H          -4.0354    2.5164   11.8747 H       1  UNL1        0.0000
     18 H          -2.9149    3.8437   11.5105 H       1  UNL1        0.0000
     19 H          -4.5877    4.1922   11.9810 H       1  UNL1        0.0000
     20 C          -2.9709    5.0442   13.9900 C.3     1  UNL1        0.0000
     21 H          -2.5732    5.0922   15.0034 H       1  UNL1        0.0000
     22 H          -3.8609    5.6670   13.9243 H       1  UNL1        0.0000
     23 H          -2.2164    5.4367   13.3054 H       1  UNL1        0.0000
     24 N          -2.9913    1.6256   15.7225 N.3     1  UNL1        0.0000
     25 SI         -3.9371    0.2580   15.1604 Si      1  UNL1        0.0000
     26 C          -3.3425   -0.2329   13.4181 C.3     1  UNL1        0.0000
     27 H          -3.8884    0.3016   12.6471 H       1  UNL1        0.0000
     28 H          -3.4708   -1.2945   13.2293 H       1  UNL1        0.0000
     29 H          -2.2895    0.0106   13.3030 H       1  UNL1        0.0000
     30 C          -3.7431   -1.2446   16.3298 C.3     1  UNL1        0.0000
     31 H          -4.5375   -1.2610   17.0676 H       1  UNL1        0.0000
     32 H          -2.8008   -1.2460   16.8667 H       1  UNL1        0.0000
     33 H          -3.8075   -2.1749   15.7735 H       1  UNL1        0.0000
     34 C          -5.7858    0.7214   15.0805 C.3     1  UNL1        0.0000
     35 H          -5.9855    1.5305   14.3845 H       1  UNL1        0.0000
     36 H          -6.1606    1.0199   16.0536 H       1  UNL1        0.0000
     37 H          -6.3661   -0.1371   14.7582 H       1  UNL1        0.0000
     38 SI         -3.2877    2.5652   17.1805 Si      1  UNL1        0.0000
     39 C          -3.8647    1.3461   18.5305 C.3     1  UNL1        0.0000
     40 H          -3.1539    0.5473   18.7113 H       1  UNL1        0.0000
     41 H          -4.8171    0.8910   18.2849 H       1  UNL1        0.0000
     42 H          -3.9938    1.8838   19.4639 H       1  UNL1        0.0000
     43 C          -4.7066    3.8256   16.9411 C.3     1  UNL1        0.0000
     44 H          -4.3822    4.7243   16.4276 H       1  UNL1        0.0000
     45 H          -5.0878    4.1290   17.9118 H       1  UNL1        0.0000
     46 H          -5.5393    3.4095   16.3826 H       1  UNL1        0.0000
     47 C          -1.7347    3.4520   17.8142 C.3     1  UNL1        0.0000
     48 H          -1.0828    2.7822   18.3679 H       1  UNL1        0.0000
     49 H          -2.0135    4.2578   18.4870 H       1  UNL1        0.0000
     50 H          -1.1518    3.8906   17.0096 H       1  UNL1        0.0000
@<TRIPOS>BOND
     1    18    16    1
     2    17    16    1
     3    19    16    1
     4    16    14    1
     5    27    26    1
     6    28    26    1
     7    29    26    1
     8    23    20    1
     9    26    25    1
    10    14    13    1
    11    14    20    1
    12    14    15    1
    13    13    12    1
    14    22    20    1
    15    20    21    1
    16    35    34    1
    17    11     8    1
    18    37    34    1
    19    12     1    1
    20    12    24    1
    21     1     2    1
    22    34    25    1
    23    34    36    1
    24    25    24    1
    25    25    30    1
    26     9     8    1
    27     8     2    1
    28     8    10    1
    29     6     4    1
    30    24    38    1
    31    33    30    1
    32     2     4    1
    33     2     3    1
    34    30    32    1
    35    30    31    1
    36    46    43    1
    37    44    43    1
    38     4     5    1
    39     4     7    1
    40    43    38    1
    41    43    45    1
    42    50    47    1
    43    38    47    1
    44    38    39    1
    45    47    48    1
    46    47    49    1
    47    41    39    1
    48    39    40    1
    49    39    42    1
