@<TRIPOS>MOLECULE
3,4
 50 49 0 0 0
SMALL
GASTEIGER

@<TRIPOS>ATOM
      1 SI          3.9369    0.2584   11.8580 Si      1  UNL1        0.0000
      2 SI          3.2879    2.5652    9.8371 Si      1  UNL1        0.0000
      3 N           0.7382    1.4732   12.1034 N.3     1  UNL1        0.0000
      4 N           2.1191    2.7770   13.2195 N.3     1  UNL1        0.0000
      5 N           2.9915    1.6260   11.2954 N.3     1  UNL1        0.0000
      6 C           0.2683    0.6768   10.9911 C.3     1  UNL1        0.0000
      7 H           0.9978    0.7061   10.1666 H       1  UNL1        0.0000
      8 C          -1.0604    1.2929   10.5361 C.3     1  UNL1        0.0000
      9 H          -0.8922    2.2962   10.1448 H       1  UNL1        0.0000
     10 H          -1.7247    1.3695   11.4026 H       1  UNL1        0.0000
     11 H          -1.5302    0.6835    9.7666 H       1  UNL1        0.0000
     12 C           0.0714   -0.7800   11.4291 C.3     1  UNL1        0.0000
     13 H           1.0205   -1.2134   11.7338 H       1  UNL1        0.0000
     14 H          -0.3407   -1.3686   10.6126 H       1  UNL1        0.0000
     15 H          -0.6125   -0.8178   12.2746 H       1  UNL1        0.0000
     16 C           3.3050    3.5941   13.4052 C.3     1  UNL1        0.0000
     17 H           4.1137    3.2223   12.7590 H       1  UNL1        0.0000
     18 C           3.7428    3.5292   14.8713 C.3     1  UNL1        0.0000
     19 H           4.0358    2.5172   15.1434 H       1  UNL1        0.0000
     20 H           2.9154    3.8447   15.5073 H       1  UNL1        0.0000
     21 H           4.5882    4.1929   15.0366 H       1  UNL1        0.0000
     22 C           2.9712    5.0446   13.0276 C.3     1  UNL1        0.0000
     23 H           2.5735    5.0924   12.0142 H       1  UNL1        0.0000
     24 H           3.8611    5.6674   13.0932 H       1  UNL1        0.0000
     25 H           2.2166    5.4373   13.7121 H       1  UNL1        0.0000
     26 C           1.9594    1.9836   12.1730 C.3     1  UNL1        0.0000
     27 C           3.3420   -0.2321   13.6002 C.3     1  UNL1        0.0000
     28 H           3.8879    0.3023   14.3713 H       1  UNL1        0.0000
     29 H           3.4699   -1.2938   13.7892 H       1  UNL1        0.0000
     30 H           2.2890    0.0117   13.7150 H       1  UNL1        0.0000
     31 C           3.7426   -1.2443   10.6887 C.3     1  UNL1        0.0000
     32 H           4.5369   -1.2610    9.9509 H       1  UNL1        0.0000
     33 H           2.8003   -1.2455   10.1518 H       1  UNL1        0.0000
     34 H           3.8068   -2.1746   11.2452 H       1  UNL1        0.0000
     35 C           5.7857    0.7216   11.9381 C.3     1  UNL1        0.0000
     36 H           5.9853    1.5306   12.6341 H       1  UNL1        0.0000
     37 H           6.1607    1.0200   10.9651 H       1  UNL1        0.0000
     38 H           6.3658   -0.1370   12.2605 H       1  UNL1        0.0000
     39 C           3.8648    1.3456    8.4877 C.3     1  UNL1        0.0000
     40 H           3.1540    0.5468    8.3072 H       1  UNL1        0.0000
     41 H           4.8172    0.8906    8.7335 H       1  UNL1        0.0000
     42 H           3.9940    1.8829    7.5541 H       1  UNL1        0.0000
     43 C           4.7069    3.8257   10.0762 C.3     1  UNL1        0.0000
     44 H           4.3826    4.7246   10.5894 H       1  UNL1        0.0000
     45 H           5.0881    4.1287    9.1054 H       1  UNL1        0.0000
     46 H           5.5395    3.4097   10.6348 H       1  UNL1        0.0000
     47 C           1.7349    3.4521    9.2036 C.3     1  UNL1        0.0000
     48 H           1.0829    2.7824    8.6500 H       1  UNL1        0.0000
     49 H           2.0136    4.2580    8.5309 H       1  UNL1        0.0000
     50 H           1.1520    3.8905   10.0084 H       1  UNL1        0.0000
@<TRIPOS>BOND
     1    42    39    1
     2    40    39    1
     3    39    41    1
     4    39     2    1
     5    49    47    1
     6    48    47    1
     7    45    43    1
     8    47     2    1
     9    47    50    1
    10    11     8    1
    11     2    43    1
    12     2     5    1
    13    32    31    1
    14    43    44    1
    15    43    46    1
    16     9     8    1
    17    33    31    1
    18     7     6    1
    19     8     6    1
    20     8    10    1
    21    14    12    1
    22    31    34    1
    23    31     1    1
    24    37    35    1
    25     6    12    1
    26     6     3    1
    27     5     1    1
    28     5    26    1
    29    12    13    1
    30    12    15    1
    31     1    35    1
    32     1    27    1
    33    35    38    1
    34    35    36    1
    35    23    22    1
    36     3    26    1
    37    26     4    1
    38    17    16    1
    39    22    24    1
    40    22    16    1
    41    22    25    1
    42     4    16    1
    43    16    18    1
    44    27    30    1
    45    27    29    1
    46    27    28    1
    47    18    21    1
    48    18    19    1
    49    18    20    1
