@<TRIPOS>MOLECULE
1,2
 20 21 0 0 0
SMALL
GASTEIGER

@<TRIPOS>ATOM
      1 N           0.6792    5.2595    2.7673 N.pl3   1  UNL1       -0.2392
      2 N           2.3148    4.5332    0.9116 N.pl3   1  UNL1       -0.2392
      3 C          -0.1680    5.5644    3.7608 C.3     1  UNL1        0.0848
      4 C          -0.7496    6.8001    3.9075 C.2     1  UNL1       -0.0600
      5 C          -0.4542    7.8033    2.9823 C.2     1  UNL1       -0.0620
      6 C           0.4128    7.5063    1.9562 C.2     1  UNL1       -0.0375
      7 C           0.9710    6.2273    1.8634 C.2     1  UNL1        0.0710
      8 C           3.1602    4.0856   -0.0153 C.3     1  UNL1        0.0848
      9 C           3.6275    4.8568   -1.0596 C.2     1  UNL1       -0.0600
     10 C           3.1991    6.1768   -1.1601 C.2     1  UNL1       -0.0620
     11 C           2.3244    6.6558   -0.2110 C.2     1  UNL1       -0.0375
     12 C           1.8916    5.8151    0.8208 C.2     1  UNL1        0.0710
     13 H          -0.3807    4.7712    4.4637 H       1  UNL1        0.0584
     14 H          -1.4236    6.9836    4.7286 H       1  UNL1        0.0592
     15 H          -0.8941    8.7842    3.0698 H       1  UNL1        0.0616
     16 H           0.6617    8.2579    1.2249 H       1  UNL1        0.0637
     17 H           3.4746    3.0584    0.0890 H       1  UNL1        0.0584
     18 H           4.3113    4.4368   -1.7793 H       1  UNL1        0.0592
     19 H           3.5430    6.8116   -1.9624 H       1  UNL1        0.0616
     20 H           1.9753    7.6738   -0.2636 H       1  UNL1        0.0637
@<TRIPOS>BOND
     1    19    10    1
     2    18     9    1
     3    10     9    2
     4    10    11    1
     5     9     8    1
     6    20    11    1
     7    11    12    2
     8     8    17    1
     9     8     2    1
    10    12     2    1
    11    12     7    1
    12    16     6    1
    13     7     6    2
    14     7     1    1
    15     6     5    1
    16     1     3    1
    17     5    15    1
    18     5     4    2
    19     3     4    1
    20     3    13    1
    21     4    14    1
