@<TRIPOS>MOLECULE
1,6
 72 73 0 0 0
SMALL
GASTEIGER

@<TRIPOS>ATOM
      1 N           4.2416    1.5079   10.3513 N.pl3   1  UNL1       -0.2371
      2 C           4.9037    1.3835   11.4893 C.3     1  UNL1        0.0968
      3 C           5.2070    0.1326   12.0440 C.2     1  UNL1       -0.0383
      4 H           5.7642    0.1464   12.9711 H       1  UNL1        0.0610
      5 C           4.8388   -1.1347   11.5712 C.2     1  UNL1        0.0264
      6 N           4.2220   -1.3063   10.4162 N.pl3   1  UNL1       -0.2192
      7 C           3.6707    2.7396    9.9426 C.ar    1  UNL1        0.0557
      8 C           2.3725    3.0507   10.3866 C.ar    1  UNL1       -0.0219
      9 C           1.8372    4.2918   10.0704 C.ar    1  UNL1       -0.0565
     10 H           0.8587    4.5634   10.4306 H       1  UNL1        0.0621
     11 C           2.5329    5.1906    9.2848 C.ar    1  UNL1       -0.0611
     12 H           2.1012    6.1521    9.0505 H       1  UNL1        0.0618
     13 C           3.7668    4.8404    8.7737 C.ar    1  UNL1       -0.0565
     14 H           4.2822    5.5268    8.1215 H       1  UNL1        0.0621
     15 C           4.3572    3.6260    9.0978 C.ar    1  UNL1       -0.0219
     16 C           5.6802    3.2356    8.4817 C.3     1  UNL1       -0.0197
     17 H           6.1602    2.4898    9.1233 H       1  UNL1        0.0344
     18 C           6.6593    4.4043    8.3435 C.3     1  UNL1       -0.0586
     19 H           6.3547    5.0890    7.5552 H       1  UNL1        0.0235
     20 H           7.6458    4.0210    8.0923 H       1  UNL1        0.0235
     21 H           6.7344    4.9568    9.2777 H       1  UNL1        0.0235
     22 C           5.3985    2.5992    7.1120 C.3     1  UNL1       -0.0586
     23 H           4.7215    1.7387    7.2298 H       1  UNL1        0.0235
     24 H           6.3292    2.2621    6.6551 H       1  UNL1        0.0235
     25 H           4.9298    3.3296    6.4531 H       1  UNL1        0.0235
     26 C           1.5634    2.0128   11.1339 C.3     1  UNL1       -0.0197
     27 H           1.8493    1.0413   10.6989 H       1  UNL1        0.0344
     28 C           1.8769    2.0045   12.6348 C.3     1  UNL1       -0.0586
     29 H           2.8917    1.6697   12.8259 H       1  UNL1        0.0235
     30 H           1.1954    1.3303   13.1492 H       1  UNL1        0.0235
     31 H           1.7516    3.0022   13.0523 H       1  UNL1        0.0235
     32 C           0.0590    2.2182   10.9455 C.3     1  UNL1       -0.0586
     33 H          -0.4816    1.3485   11.3073 H       1  UNL1        0.0235
     34 H          -0.1815    2.3569    9.8962 H       1  UNL1        0.0235
     35 H          -0.2913    3.0808   11.5085 H       1  UNL1        0.0235
     36 C           5.3429    2.6095   12.2499 C.3     1  UNL1       -0.0359
     37 H           6.3525    2.8548   11.9171 H       1  UNL1        0.0255
     38 H           5.3717    2.4273   13.3212 H       1  UNL1        0.0255
     39 H           4.6918    3.4554   12.0365 H       1  UNL1        0.0255
     40 C           5.1776   -2.3184   12.4398 C.3     1  UNL1       -0.0248
     41 H           4.5975   -3.1924   12.1502 H       1  UNL1        0.0290
     42 H           5.0134   -2.0962   13.4916 H       1  UNL1        0.0290
     43 H           6.2356   -2.5398   12.2943 H       1  UNL1        0.0290
     44 C           3.5938   -2.5170   10.0421 C.ar    1  UNL1        0.0601
     45 C           2.3502   -2.8447   10.6082 C.ar    1  UNL1       -0.0216
     46 C           1.7196   -4.0201   10.2219 C.ar    1  UNL1       -0.0565
     47 H           0.7693   -4.2828   10.6608 H       1  UNL1        0.0621
     48 C           2.2814   -4.8553    9.2775 C.ar    1  UNL1       -0.0611
     49 H           1.7731   -5.7602    8.9808 H       1  UNL1        0.0618
     50 C           3.4953   -4.5204    8.7101 C.ar    1  UNL1       -0.0565
     51 H           3.9260   -5.1712    7.9658 H       1  UNL1        0.0621
     52 C           4.1749   -3.3706    9.0886 C.ar    1  UNL1       -0.0216
     53 C           5.5151   -3.0537    8.4650 C.3     1  UNL1       -0.0197
     54 H           6.0193   -2.3063    9.0864 H       1  UNL1        0.0344
     55 C           6.4378   -4.2755    8.4041 C.3     1  UNL1       -0.0586
     56 H           6.0971   -4.9967    7.6650 H       1  UNL1        0.0235
     57 H           6.4878   -4.7671    9.3733 H       1  UNL1        0.0235
     58 H           7.4412   -3.9583    8.1285 H       1  UNL1        0.0235
     59 C           5.3035   -2.4639    7.0645 C.3     1  UNL1       -0.0586
     60 H           4.7993   -3.1870    6.4247 H       1  UNL1        0.0235
     61 H           6.2644   -2.2102    6.6165 H       1  UNL1        0.0235
     62 H           4.6868   -1.5576    7.1376 H       1  UNL1        0.0235
     63 C           1.6590   -1.9244   11.5878 C.3     1  UNL1       -0.0197
     64 H           2.2899   -1.0434   11.7527 H       1  UNL1        0.0344
     65 C           1.4195   -2.6097   12.9359 C.3     1  UNL1       -0.0586
     66 H           0.7469   -3.4568   12.8277 H       1  UNL1        0.0235
     67 H           0.9720   -1.9078   13.6363 H       1  UNL1        0.0235
     68 H           2.3542   -2.9681   13.3599 H       1  UNL1        0.0235
     69 C           0.3382   -1.4468   10.9803 C.3     1  UNL1       -0.0586
     70 H           0.5351   -0.9086   10.0552 H       1  UNL1        0.0235
     71 H          -0.1750   -0.7891   11.6775 H       1  UNL1        0.0235
     72 H          -0.3179   -2.2858   10.7629 H       1  UNL1        0.0235
@<TRIPOS>BOND
     1    60    59    1
     2    25    22    1
     3    61    59    1
     4    24    22    1
     5    59    62    1
     6    59    53    1
     7    22    23    1
     8    22    16    1
     9    19    18    1
    10    56    55    1
    11    51    50    1
    12    20    18    1
    13    14    13    1
    14    58    55    1
    15    18    16    1
    16    18    21    1
    17    55    53    1
    18    55    57    1
    19    53    54    1
    20    53    52    1
    21    16    15    1
    22    16    17    1
    23    50    52   ar
    24    50    48   ar
    25    13    15   ar
    26    13    11   ar
    27    49    48    1
    28    12    11    1
    29    52    44   ar
    30    15     7   ar
    31    48    46   ar
    32    11     9   ar
    33    34    32    1
    34     7     1    1
    35     7     8   ar
    36    44     6    1
    37    44    45   ar
    38    70    69    1
    39     9     8   ar
    40     9    10    1
    41    46    45   ar
    42    46    47    1
    43     1     2    1
    44     8    26    1
    45     6     5    1
    46    45    63    1
    47    27    26    1
    48    72    69    1
    49    32    26    1
    50    32    33    1
    51    32    35    1
    52    69    63    1
    53    69    71    1
    54    26    28    1
    55     2     3    1
    56     2    36    1
    57     5     3    2
    58     5    40    1
    59    63    64    1
    60    63    65    1
    61    37    36    1
    62    39    36    1
    63     3     4    1
    64    41    40    1
    65    36    38    1
    66    43    40    1
    67    40    42    1
    68    28    29    1
    69    28    31    1
    70    28    30    1
    71    66    65    1
    72    65    68    1
    73    65    67    1
