@<TRIPOS>MOLECULE
5,6
 78 82 0 0 0
SMALL
GASTEIGER

@<TRIPOS>ATOM
      1 SI          5.0017    1.0699    1.7726 Si      1  UNL1        0.0000
      2 SI          7.1603    2.0228    2.1290 Si      1  UNL1        0.0000
      3 SI          4.7992   -0.2030   -0.2574 Si      1  UNL1        0.0000
      4 SI          5.5489   -1.0487    4.7700 Si      1  UNL1        0.0000
      5 N           2.9835   -0.0762    5.2970 N.pl3   1  UNL1        0.0000
      6 N           2.5142    1.1487    2.8480 N.3     1  UNL1        0.0000
      7 C           3.9875   -0.0057    4.3769 C.3     1  UNL1        0.0000
      8 C           3.7814    0.6475    3.1753 C.3     1  UNL1        0.0000
      9 C           2.5021    2.0241    1.8596 C.3     1  UNL1        0.0000
     10 C           1.3536    2.3689    1.0748 C.2     1  UNL1        0.0000
     11 C           1.5336    2.9946   -0.1235 C.2     1  UNL1        0.0000
     12 C           2.8120    3.3767   -0.6188 C.2     1  UNL1        0.0000
     13 C           3.8967    3.2289    0.1580 C.2     1  UNL1        0.0000
     14 C           3.8218    2.6270    1.4931 C.3     1  UNL1        0.0000
     15 C          -0.0433    2.0297    1.4969 C.3     1  UNL1        0.0000
     16 C           4.1620    3.6996    2.5449 C.3     1  UNL1        0.0000
     17 C           3.2155   -0.8720    8.9130 C.ar    1  UNL1        0.0000
     18 C           4.0729    0.1191    9.3529 C.ar    1  UNL1        0.0000
     19 C           4.5018    1.0790    8.4560 C.ar    1  UNL1        0.0000
     20 C           4.1278    1.0349    7.1228 C.ar    1  UNL1        0.0000
     21 C           3.3217   -0.0245    6.6507 C.ar    1  UNL1        0.0000
     22 C           2.8266   -0.9565    7.5853 C.ar    1  UNL1        0.0000
     23 C           1.8867   -2.0541    7.1846 C.3     1  UNL1        0.0000
     24 C           4.5109    2.1776    6.2267 C.3     1  UNL1        0.0000
     25 C           7.5425    3.0861    3.6902 C.3     1  UNL1        0.0000
     26 C           7.5941    3.2030    0.6766 C.3     1  UNL1        0.0000
     27 C           8.4673    0.6335    2.0216 C.3     1  UNL1        0.0000
     28 C           3.0377   -0.2995   -0.9992 C.3     1  UNL1        0.0000
     29 C           5.8887    0.6665   -1.5752 C.3     1  UNL1        0.0000
     30 C           5.4492   -2.0045   -0.2176 C.3     1  UNL1        0.0000
     31 C           7.0335   -0.1311    5.5511 C.3     1  UNL1        0.0000
     32 C           6.1187   -1.9173    3.1705 C.3     1  UNL1        0.0000
     33 C           5.1861   -2.5074    5.9516 C.3     1  UNL1        0.0000
     34 H           0.6689    3.2061   -0.7367 H       1  UNL1        0.0000
     35 H           2.8763    3.8122   -1.6051 H       1  UNL1        0.0000
     36 H           4.8637    3.5894   -0.1581 H       1  UNL1        0.0000
     37 H          -0.6467    1.7681    0.6291 H       1  UNL1        0.0000
     38 H          -0.0413    1.1948    2.2006 H       1  UNL1        0.0000
     39 H          -0.5071    2.8939    1.9748 H       1  UNL1        0.0000
     40 H           3.4080    4.4872    2.5189 H       1  UNL1        0.0000
     41 H           4.1765    3.2743    3.5442 H       1  UNL1        0.0000
     42 H           5.1290    4.1489    2.3380 H       1  UNL1        0.0000
     43 H           2.8384   -1.6033    9.6143 H       1  UNL1        0.0000
     44 H           4.3761    0.1613   10.3880 H       1  UNL1        0.0000
     45 H           5.1254    1.8927    8.7996 H       1  UNL1        0.0000
     46 H           1.2488   -2.3268    8.0238 H       1  UNL1        0.0000
     47 H           1.2634   -1.7324    6.3471 H       1  UNL1        0.0000
     48 H           2.4375   -2.9449    6.8833 H       1  UNL1        0.0000
     49 H           3.6864    2.4148    5.5541 H       1  UNL1        0.0000
     50 H           4.7380    3.0573    6.8270 H       1  UNL1        0.0000
     51 H           5.3826    1.9383    5.6229 H       1  UNL1        0.0000
     52 H           8.4379    2.7387    4.1987 H       1  UNL1        0.0000
     53 H           7.7101    4.1260    3.4218 H       1  UNL1        0.0000
     54 H           6.7321    3.0734    4.4111 H       1  UNL1        0.0000
     55 H           8.6435    3.4849    0.7147 H       1  UNL1        0.0000
     56 H           7.4227    2.7372   -0.2873 H       1  UNL1        0.0000
     57 H           7.0179    4.1233    0.7034 H       1  UNL1        0.0000
     58 H           9.4680    1.0511    1.9599 H       1  UNL1        0.0000
     59 H           8.4436   -0.0267    2.8810 H       1  UNL1        0.0000
     60 H           8.3191    0.0244    1.1349 H       1  UNL1        0.0000
     61 H           3.0596   -0.6647   -2.0233 H       1  UNL1        0.0000
     62 H           2.4111   -0.9739   -0.4260 H       1  UNL1        0.0000
     63 H           2.5549    0.6724   -1.0075 H       1  UNL1        0.0000
     64 H           5.8135    0.1600   -2.5329 H       1  UNL1        0.0000
     65 H           5.5889    1.6972   -1.7320 H       1  UNL1        0.0000
     66 H           6.9366    0.6610   -1.2920 H       1  UNL1        0.0000
     67 H           5.4157   -2.4362   -1.2144 H       1  UNL1        0.0000
     68 H           6.4776   -2.0621    0.1235 H       1  UNL1        0.0000
     69 H           4.8535   -2.6415    0.4271 H       1  UNL1        0.0000
     70 H           7.8784   -0.8111    5.6051 H       1  UNL1        0.0000
     71 H           7.3496    0.7332    4.9805 H       1  UNL1        0.0000
     72 H           6.8152    0.1903    6.5646 H       1  UNL1        0.0000
     73 H           6.9463   -2.5844    3.3888 H       1  UNL1        0.0000
     74 H           5.3181   -2.5208    2.7587 H       1  UNL1        0.0000
     75 H           6.4436   -1.2290    2.4028 H       1  UNL1        0.0000
     76 H           6.0347   -3.1868    5.9610 H       1  UNL1        0.0000
     77 H           5.0115   -2.1887    6.9737 H       1  UNL1        0.0000
     78 H           4.3230   -3.0777    5.6241 H       1  UNL1        0.0000
@<TRIPOS>BOND
     1    64    29    1
     2    61    28    1
     3    65    29    1
     4    35    12    1
     5    29    66    1
     6    29     3    1
     7    67    30    1
     8    63    28    1
     9    28    62    1
    10    28     3    1
    11    34    11    1
    12    12    11    1
    13    12    13    2
    14    56    26    1
    15     3    30    1
    16     3     1    1
    17    30    68    1
    18    30    69    1
    19    36    13    1
    20    11    10    2
    21    13    14    1
    22    37    15    1
    23    26    57    1
    24    26    55    1
    25    26     2    1
    26    10    15    1
    27    10     9    1
    28    60    27    1
    29    14     1    1
    30    14     9    1
    31    14    16    1
    32    15    39    1
    33    15    38    1
    34     1     2    1
    35     1     8    1
    36     9     6    1
    37    58    27    1
    38    27     2    1
    39    27    59    1
    40     2    25    1
    41    42    16    1
    42    75    32    1
    43    40    16    1
    44    16    41    1
    45    74    32    1
    46     6     8    1
    47    32    73    1
    48    32     4    1
    49     8     7    1
    50    53    25    1
    51    25    52    1
    52    25    54    1
    53     7     4    1
    54     7     5    1
    55     4    31    1
    56     4    33    1
    57    71    31    1
    58     5    21    1
    59    31    70    1
    60    31    72    1
    61    49    24    1
    62    51    24    1
    63    78    33    1
    64    33    76    1
    65    33    77    1
    66    24    50    1
    67    24    20    1
    68    47    23    1
    69    21    20   ar
    70    21    22   ar
    71    48    23    1
    72    20    19   ar
    73    23    22    1
    74    23    46    1
    75    22    17   ar
    76    19    45    1
    77    19    18   ar
    78    17    18   ar
    79    17    43    1
    80    18    44    1
    81     1     9    0
    82     1     6    0
