@<TRIPOS>MOLECULE
2,3
 36 36 0 0 0
SMALL
GASTEIGER

@<TRIPOS>ATOM
      1 SI          3.4413   15.6138   -0.2168 Si      1  UNL1        0.0000
      2 N           3.1123   14.8187    1.2866 N.3     1  UNL1        0.0000
      3 N           3.3156   13.8342    3.2914 N.pl3   1  UNL1        0.0000
      4 C           3.8587   14.0145    2.0518 C.3     1  UNL1        0.0000
      5 C           5.0547   13.3541    1.6998 C.2     1  UNL1        0.0000
      6 H           5.4731   13.5096    0.7212 H       1  UNL1        0.0000
      7 C           5.6596   12.5365    2.6229 C.2     1  UNL1        0.0000
      8 H           6.5786   12.0255    2.3740 H       1  UNL1        0.0000
      9 C           5.0888   12.3660    3.8823 C.2     1  UNL1        0.0000
     10 H           5.5496   11.7273    4.6184 H       1  UNL1        0.0000
     11 C           3.9141   13.0373    4.1801 C.2     1  UNL1        0.0000
     12 C           3.2484   12.8909    5.5156 C.3     1  UNL1        0.0000
     13 H           2.9102   11.8649    5.6567 H       1  UNL1        0.0000
     14 H           2.3938   13.5639    5.5728 H       1  UNL1        0.0000
     15 H           3.9492   13.1280    6.3134 H       1  UNL1        0.0000
     16 C           4.4558   14.5757   -1.4700 C.3     1  UNL1        0.0000
     17 H           4.2949   14.9641   -2.4689 H       1  UNL1        0.0000
     18 H           4.1520   13.5337   -1.4729 H       1  UNL1        0.0000
     19 H           5.5233   14.6127   -1.2816 H       1  UNL1        0.0000
     20 C           1.6999   15.9030   -0.9412 C.3     1  UNL1        0.0000
     21 H           1.3034   15.0282   -1.4477 H       1  UNL1        0.0000
     22 H           1.6799   16.7234   -1.6502 H       1  UNL1        0.0000
     23 H           1.0360   16.1532   -0.1081 H       1  UNL1        0.0000
     24 C           4.3477   17.2837    0.1763 C.3     1  UNL1        0.0000
     25 C           3.3098   18.2849    0.6957 C.3     1  UNL1        0.0000
     26 H           2.6033   18.5558   -0.0851 H       1  UNL1        0.0000
     27 H           3.8031   19.1929    1.0423 H       1  UNL1        0.0000
     28 H           2.7483   17.8448    1.5393 H       1  UNL1        0.0000
     29 C           5.0481   17.8760   -1.0501 C.3     1  UNL1        0.0000
     30 H           5.8296   17.2124   -1.4106 H       1  UNL1        0.0000
     31 H           5.5017   18.8342   -0.8003 H       1  UNL1        0.0000
     32 H           4.3385   18.0348   -1.8582 H       1  UNL1        0.0000
     33 C           5.3737   17.0496    1.2908 C.3     1  UNL1        0.0000
     34 H           5.9121   17.9710    1.5110 H       1  UNL1        0.0000
     35 H           6.1016   16.2881    1.0146 H       1  UNL1        0.0000
     36 H           4.8529   16.7326    2.2016 H       1  UNL1        0.0000
@<TRIPOS>BOND
     1    17    16    1
     2    32    29    1
     3    22    20    1
     4    18    16    1
     5    16    19    1
     6    16     1    1
     7    21    20    1
     8    30    29    1
     9    29    31    1
    10    29    24    1
    11    20     1    1
    12    20    23    1
    13     1    24    1
    14     1     2    1
    15    26    25    1
    16    24    25    1
    17    24    33    1
    18    25    27    1
    19    25    28    1
    20     6     5    1
    21    35    33    1
    22     2     4    1
    23    33    34    1
    24    33    36    1
    25     5     4    1
    26     5     7    2
    27     4     3    1
    28     8     7    1
    29     7     9    1
    30     3    11    1
    31     9    11    2
    32     9    10    1
    33    11    12    1
    34    12    14    1
    35    12    13    1
    36    12    15    1
