@<TRIPOS>MOLECULE
2,3
 27 27 0 0 0
SMALL
GASTEIGER

@<TRIPOS>ATOM
      1 SI          9.5028   -2.0436    1.4557 Si      1  UNL1        0.0000
      2 N          10.1569   -1.2133    0.0812 N.3     1  UNL1        0.0000
      3 N          11.8694   -0.4297   -1.1444 N.pl3   1  UNL1        0.0000
      4 C          11.2215   -1.5287   -0.6648 C.3     1  UNL1        0.0000
      5 C          11.6717   -2.8205   -1.0112 C.2     1  UNL1        0.0000
      6 H          11.1381   -3.6787   -0.6385 H       1  UNL1        0.0000
      7 C          12.7742   -2.9436   -1.8210 C.2     1  UNL1        0.0000
      8 H          13.1362   -3.9236   -2.0982 H       1  UNL1        0.0000
      9 C          13.4299   -1.8049   -2.2880 C.2     1  UNL1        0.0000
     10 H          14.3001   -1.8867   -2.9191 H       1  UNL1        0.0000
     11 C          12.9439   -0.5596   -1.9252 C.2     1  UNL1        0.0000
     12 C          13.5853    0.7147   -2.3870 C.3     1  UNL1        0.0000
     13 H          13.2538    1.5352   -1.7473 H       1  UNL1        0.0000
     14 H          13.2887    0.9325   -3.4137 H       1  UNL1        0.0000
     15 H          14.6694    0.6338   -2.3545 H       1  UNL1        0.0000
     16 C           9.3343   -0.6661    2.7666 C.3     1  UNL1        0.0000
     17 H          10.3122   -0.1886    2.9052 H       1  UNL1        0.0000
     18 H           8.9673   -1.0005    3.7322 H       1  UNL1        0.0000
     19 H           8.6621    0.1097    2.3861 H       1  UNL1        0.0000
     20 C           7.7996   -2.7809    0.9732 C.3     1  UNL1        0.0000
     21 H           7.8829   -3.5233    0.1847 H       1  UNL1        0.0000
     22 H           7.1206   -2.0055    0.6306 H       1  UNL1        0.0000
     23 H           7.3411   -3.2641    1.8286 H       1  UNL1        0.0000
     24 C          10.6303   -3.4391    2.1338 C.3     1  UNL1        0.0000
     25 H          11.6788   -3.1614    2.0787 H       1  UNL1        0.0000
     26 H          10.5013   -4.3699    1.5915 H       1  UNL1        0.0000
     27 H          10.3978   -3.6406    3.1741 H       1  UNL1        0.0000
@<TRIPOS>BOND
     1    14    12    1
     2    10     9    1
     3    12    15    1
     4    12    11    1
     5    12    13    1
     6     9    11    2
     7     9     7    1
     8     8     7    1
     9    11     3    1
    10     7     5    2
    11     3     4    1
    12     5     4    1
    13     5     6    1
    14     4     2    1
    15     2     1    1
    16    21    20    1
    17    22    20    1
    18    20     1    1
    19    20    23    1
    20     1    24    1
    21     1    16    1
    22    26    24    1
    23    25    24    1
    24    24    27    1
    25    19    16    1
    26    16    17    1
    27    16    18    1
