@<TRIPOS>MOLECULE
2,3
 27 27 0 0 0
SMALL
GASTEIGER

@<TRIPOS>ATOM
      1 SI          9.4744   -2.1797    1.4360 Si      1  UNL1        0.0000
      2 N          10.1583   -1.1255    0.2241 N.3     1  UNL1        0.0000
      3 N          11.7535   -0.2757   -1.0530 N.pl3   1  UNL1        0.0000
      4 C          11.1435   -1.4055   -0.6287 C.3     1  UNL1        0.0000
      5 C          11.5523   -2.6650   -1.1125 C.2     1  UNL1        0.0000
      6 H          11.0459   -3.5533   -0.7741 H       1  UNL1        0.0000
      7 C          12.5868   -2.7128   -2.0148 C.2     1  UNL1        0.0000
      8 H          12.9228   -3.6627   -2.4057 H       1  UNL1        0.0000
      9 C          13.2063   -1.5346   -2.4314 C.2     1  UNL1        0.0000
     10 H          14.0225   -1.5606   -3.1353 H       1  UNL1        0.0000
     11 C          12.7584   -0.3246   -1.9255 C.2     1  UNL1        0.0000
     12 C          13.3650    0.9824   -2.3323 C.3     1  UNL1        0.0000
     13 H          13.2841    1.6903   -1.5087 H       1  UNL1        0.0000
     14 H          12.8212    1.3920   -3.1851 H       1  UNL1        0.0000
     15 H          14.4070    0.8547   -2.6155 H       1  UNL1        0.0000
     16 C           8.9479   -0.9941    2.8239 C.3     1  UNL1        0.0000
     17 H           9.8176   -0.4389    3.1774 H       1  UNL1        0.0000
     18 H           8.4893   -1.4966    3.6694 H       1  UNL1        0.0000
     19 H           8.2462   -0.2583    2.4363 H       1  UNL1        0.0000
     20 C           7.9909   -3.1561    0.7106 C.3     1  UNL1        0.0000
     21 H           7.1624   -2.4956    0.4730 H       1  UNL1        0.0000
     22 H           7.6305   -3.8808    1.4331 H       1  UNL1        0.0000
     23 H           8.2524   -3.6981   -0.1941 H       1  UNL1        0.0000
     24 C          10.7969   -3.4098    2.0851 C.3     1  UNL1        0.0000
     25 H          11.7871   -2.9626    2.0589 H       1  UNL1        0.0000
     26 H          10.8305   -4.3291    1.5089 H       1  UNL1        0.0000
     27 H          10.5877   -3.6850    3.1138 H       1  UNL1        0.0000
@<TRIPOS>BOND
     1    14    12    1
     2    10     9    1
     3    15    12    1
     4     9     7    1
     5     9    11    2
     6     8     7    1
     7    12    11    1
     8    12    13    1
     9     7     5    2
    10    11     3    1
    11     5     6    1
    12     5     4    1
    13     3     4    1
    14     4     2    1
    15    23    20    1
    16     2     1    1
    17    21    20    1
    18    20    22    1
    19    20     1    1
    20     1    24    1
    21     1    16    1
    22    26    24    1
    23    25    24    1
    24    24    27    1
    25    19    16    1
    26    16    17    1
    27    16    18    1
