@<TRIPOS>MOLECULE
2,3
 36 36 0 0 0
SMALL
GASTEIGER

@<TRIPOS>ATOM
      1 SI          0.4839   16.0683    5.8189 Si      1  UNL1        0.0000
      2 N           0.8125   15.0569    4.4516 N.3     1  UNL1        0.0000
      3 N           0.6090   13.7834    2.6170 N.pl3   1  UNL1        0.0000
      4 C           0.0707   14.1406    3.8197 C.3     1  UNL1        0.0000
      5 C          -1.1156   13.5271    4.2747 C.2     1  UNL1        0.0000
      6 H          -1.5299   13.8213    5.2226 H       1  UNL1        0.0000
      7 C          -1.7158   12.5746    3.4880 C.2     1  UNL1        0.0000
      8 H          -2.6269   12.0959    3.8172 H       1  UNL1        0.0000
      9 C          -1.1504   12.2251    2.2636 C.2     1  UNL1        0.0000
     10 H          -1.6080   11.4791    1.6340 H       1  UNL1        0.0000
     11 C           0.0146   12.8572    1.8607 C.2     1  UNL1        0.0000
     12 C           0.6735   12.5226    0.5562 C.3     1  UNL1        0.0000
     13 H           1.0068   11.4851    0.5578 H       1  UNL1        0.0000
     14 H           1.5302   13.1777    0.4021 H       1  UNL1        0.0000
     15 H          -0.0305   12.6498   -0.2640 H       1  UNL1        0.0000
     16 C           2.2254   16.4610    6.4927 C.3     1  UNL1        0.0000
     17 H           2.8897   16.5833    5.6318 H       1  UNL1        0.0000
     18 H           2.6210   15.6714    7.1244 H       1  UNL1        0.0000
     19 H           2.2461   17.3782    7.0710 H       1  UNL1        0.0000
     20 C          -0.5339   15.2352    7.2142 C.3     1  UNL1        0.0000
     21 H          -0.3827   15.7787    8.1396 H       1  UNL1        0.0000
     22 H          -0.2241   14.2091    7.3850 H       1  UNL1        0.0000
     23 H          -1.6001   15.2346    7.0152 H       1  UNL1        0.0000
     24 C          -0.4214   17.6600    5.1776 C.3     1  UNL1        0.0000
     25 C          -1.1253   18.4294    6.2993 C.3     1  UNL1        0.0000
     26 H          -1.5772   19.3396    5.9073 H       1  UNL1        0.0000
     27 H          -0.4185   18.7070    7.0771 H       1  UNL1        0.0000
     28 H          -1.9088   17.8275    6.7520 H       1  UNL1        0.0000
     29 C          -1.4447   17.2604    4.1086 C.3     1  UNL1        0.0000
     30 H          -0.9216   16.8117    3.2563 H       1  UNL1        0.0000
     31 H          -1.9840   18.1377    3.7523 H       1  UNL1        0.0000
     32 H          -2.1720   16.5473    4.4942 H       1  UNL1        0.0000
     33 C           0.6176   18.5727    4.5165 C.3     1  UNL1        0.0000
     34 H           1.3217   18.9582    5.2499 H       1  UNL1        0.0000
     35 H           0.1251   19.4181    4.0362 H       1  UNL1        0.0000
     36 H           1.1816   18.0113    3.7501 H       1  UNL1        0.0000
@<TRIPOS>BOND
     1    15    12    1
     2    14    12    1
     3    12    13    1
     4    12    11    1
     5    10     9    1
     6    11     9    2
     7    11     3    1
     8     9     7    1
     9     3     4    1
    10    30    29    1
    11     7     8    1
    12     7     5    2
    13    36    33    1
    14    31    29    1
    15     4     5    1
    16     4     2    1
    17    35    33    1
    18    29    32    1
    19    29    24    1
    20     5     6    1
    21     2     1    1
    22    33    24    1
    23    33    34    1
    24    24     1    1
    25    24    25    1
    26    17    16    1
    27     1    16    1
    28     1    20    1
    29    26    25    1
    30    25    28    1
    31    25    27    1
    32    16    19    1
    33    16    18    1
    34    23    20    1
    35    20    22    1
    36    20    21    1
