@<TRIPOS>MOLECULE
2,3
 27 27 0 0 0
SMALL
GASTEIGER

@<TRIPOS>ATOM
      1 SI         11.0684    4.1452   -0.5068 Si      1  UNL1        0.0000
      2 N          10.7129    2.4948   -0.9520 N.3     1  UNL1        0.0000
      3 N           9.5344    0.8636   -1.8765 N.pl3   1  UNL1        0.0000
      4 C          10.0879    2.0842   -2.0555 C.3     1  UNL1        0.0000
      5 C           9.9860    2.7417   -3.2984 C.2     1  UNL1        0.0000
      6 H          10.4406    3.7099   -3.4255 H       1  UNL1        0.0000
      7 C           9.3104    2.1136   -4.3160 C.2     1  UNL1        0.0000
      8 H           9.2166    2.5906   -5.2813 H       1  UNL1        0.0000
      9 C           8.7445    0.8563   -4.1068 C.2     1  UNL1        0.0000
     10 H           8.2087    0.3549   -4.8966 H       1  UNL1        0.0000
     11 C           8.8774    0.2576   -2.8639 C.2     1  UNL1        0.0000
     12 C           8.3046   -1.0934   -2.5675 C.3     1  UNL1        0.0000
     13 H           8.0441   -1.1519   -1.5119 H       1  UNL1        0.0000
     14 H           9.0491   -1.8635   -2.7759 H       1  UNL1        0.0000
     15 H           7.4276   -1.2854   -3.1809 H       1  UNL1        0.0000
     16 C          12.7286    4.7084   -1.2869 C.3     1  UNL1        0.0000
     17 H          12.7651    4.5345   -2.3586 H       1  UNL1        0.0000
     18 H          13.5718    4.1900   -0.8405 H       1  UNL1        0.0000
     19 H          12.8774    5.7703   -1.1227 H       1  UNL1        0.0000
     20 C           9.6512    5.3032   -1.0845 C.3     1  UNL1        0.0000
     21 H           9.7754    5.6417   -2.1084 H       1  UNL1        0.0000
     22 H           9.5997    6.1879   -0.4581 H       1  UNL1        0.0000
     23 H           8.6931    4.7940   -1.0157 H       1  UNL1        0.0000
     24 C          11.1402    4.1009    1.3902 C.3     1  UNL1        0.0000
     25 H          11.8926    3.3884    1.7210 H       1  UNL1        0.0000
     26 H          10.1844    3.7474    1.7796 H       1  UNL1        0.0000
     27 H          11.3614    5.0662    1.8340 H       1  UNL1        0.0000
@<TRIPOS>BOND
     1     8     7    1
     2    10     9    1
     3     7     9    1
     4     7     5    2
     5     9    11    2
     6     6     5    1
     7     5     4    1
     8    15    12    1
     9    11    12    1
    10    11     3    1
    11    14    12    1
    12    12    13    1
    13    17    16    1
    14    21    20    1
    15     4     3    1
    16     4     2    1
    17    16    19    1
    18    16    18    1
    19    16     1    1
    20    20    23    1
    21    20     1    1
    22    20    22    1
    23     2     1    1
    24     1    24    1
    25    24    25    1
    26    24    26    1
    27    24    27    1
