@<TRIPOS>MOLECULE
2,3
 36 36 0 0 0
SMALL
GASTEIGER

@<TRIPOS>ATOM
      1 SI          0.4937   16.0786    5.8282 Si      1  UNL1        0.0000
      2 N           0.8567   15.1317    4.4078 N.3     1  UNL1        0.0000
      3 N           0.6643   13.8558    2.6136 N.pl3   1  UNL1        0.0000
      4 C           0.1597   14.1482    3.8337 C.3     1  UNL1        0.0000
      5 C          -0.9475   13.4342    4.3345 C.2     1  UNL1        0.0000
      6 H          -1.3541   13.6835    5.2977 H       1  UNL1        0.0000
      7 C          -1.4852   12.4341    3.5616 C.2     1  UNL1        0.0000
      8 H          -2.3346   11.8705    3.9203 H       1  UNL1        0.0000
      9 C          -0.9391   12.1432    2.3120 C.2     1  UNL1        0.0000
     10 H          -1.3523   11.3585    1.6991 H       1  UNL1        0.0000
     11 C           0.1408   12.8861    1.8645 C.2     1  UNL1        0.0000
     12 C           0.7861   12.6332    0.5379 C.3     1  UNL1        0.0000
     13 H           0.1414   12.0335   -0.0995 H       1  UNL1        0.0000
     14 H           1.7295   12.1040    0.6821 H       1  UNL1        0.0000
     15 H           1.0096   13.5833    0.0558 H       1  UNL1        0.0000
     16 C           2.1738   16.6994    6.4822 C.3     1  UNL1        0.0000
     17 H           2.6582   15.9822    7.1386 H       1  UNL1        0.0000
     18 H           2.8320   16.8942    5.6370 H       1  UNL1        0.0000
     19 H           2.0662   17.6218    7.0427 H       1  UNL1        0.0000
     20 C          -0.3206   15.0580    7.2361 C.3     1  UNL1        0.0000
     21 H          -0.1474   15.5580    8.1828 H       1  UNL1        0.0000
     22 H           0.1017   14.0608    7.3126 H       1  UNL1        0.0000
     23 H          -1.3949   14.9607    7.1219 H       1  UNL1        0.0000
     24 C          -0.6455   17.5486    5.2766 C.3     1  UNL1        0.0000
     25 C          -1.3795   18.1794    6.4637 C.3     1  UNL1        0.0000
     26 H          -2.0466   17.4631    6.9364 H       1  UNL1        0.0000
     27 H          -1.9730   19.0305    6.1322 H       1  UNL1        0.0000
     28 H          -0.6720   18.5287    7.2117 H       1  UNL1        0.0000
     29 C          -1.6731   17.0533    4.2535 C.3     1  UNL1        0.0000
     30 H          -2.2927   16.2566    4.6629 H       1  UNL1        0.0000
     31 H          -1.1611   16.6790    3.3649 H       1  UNL1        0.0000
     32 H          -2.3277   17.8699    3.9493 H       1  UNL1        0.0000
     33 C           0.2174   18.6192    4.6010 C.3     1  UNL1        0.0000
     34 H          -0.4137   19.4143    4.2038 H       1  UNL1        0.0000
     35 H           0.7899   18.1837    3.7766 H       1  UNL1        0.0000
     36 H           0.9156   19.0600    5.3080 H       1  UNL1        0.0000
@<TRIPOS>BOND
     1    13    12    1
     2    15    12    1
     3    12    14    1
     4    12    11    1
     5    10     9    1
     6    11     9    2
     7    11     3    1
     8     9     7    1
     9     3     4    1
    10    31    29    1
    11     7     8    1
    12     7     5    2
    13    35    33    1
    14     4     5    1
    15     4     2    1
    16    32    29    1
    17    34    33    1
    18    29    30    1
    19    29    24    1
    20     5     6    1
    21     2     1    1
    22    33    24    1
    23    33    36    1
    24    24     1    1
    25    24    25    1
    26    18    16    1
    27     1    16    1
    28     1    20    1
    29    27    25    1
    30    25    26    1
    31    25    28    1
    32    16    19    1
    33    16    17    1
    34    23    20    1
    35    20    22    1
    36    20    21    1
