@<TRIPOS>MOLECULE
2,3
 36 36 0 0 0
SMALL
GASTEIGER

@<TRIPOS>ATOM
      1 SI          3.4586   15.6130   -0.2773 Si      1  UNL1        0.0000
      2 N           3.0907   14.8902    1.2681 N.3     1  UNL1        0.0000
      3 N           3.2768   13.8952    3.2327 N.pl3   1  UNL1        0.0000
      4 C           3.7827   13.9998    1.9830 C.3     1  UNL1        0.0000
      5 C           4.8863   13.2136    1.5950 C.2     1  UNL1        0.0000
      6 H           5.2938   13.3141    0.6055 H       1  UNL1        0.0000
      7 C           5.4191   12.3375    2.5088 C.2     1  UNL1        0.0000
      8 H           6.2657   11.7225    2.2388 H       1  UNL1        0.0000
      9 C           4.8716   12.2390    3.7875 C.2     1  UNL1        0.0000
     10 H           5.2811   11.5525    4.5109 H       1  UNL1        0.0000
     11 C           3.7954   13.0454    4.1183 C.2     1  UNL1        0.0000
     12 C           3.1487   12.9962    5.4673 C.3     1  UNL1        0.0000
     13 H           3.7894   12.4932    6.1869 H       1  UNL1        0.0000
     14 H           2.2017   12.4578    5.4022 H       1  UNL1        0.0000
     15 H           2.9316   14.0087    5.8031 H       1  UNL1        0.0000
     16 C           4.2682   14.3905   -1.5169 C.3     1  UNL1        0.0000
     17 H           4.0998   14.7463   -2.5275 H       1  UNL1        0.0000
     18 H           3.8395   13.3956   -1.4463 H       1  UNL1        0.0000
     19 H           5.3417   14.3043   -1.3869 H       1  UNL1        0.0000
     20 C           1.7814   16.1371   -1.0179 C.3     1  UNL1        0.0000
     21 H           1.2953   15.3332   -1.5632 H       1  UNL1        0.0000
     22 H           1.8929   16.9672   -1.7071 H       1  UNL1        0.0000
     23 H           1.1229   16.4557   -0.2115 H       1  UNL1        0.0000
     24 C           4.6049   17.1432    0.0500 C.3     1  UNL1        0.0000
     25 C           3.7472   18.3069    0.5577 C.3     1  UNL1        0.0000
     26 H           3.0515   18.6409   -0.2079 H       1  UNL1        0.0000
     27 H           3.1723   18.0020    1.4371 H       1  UNL1        0.0000
     28 H           4.3822   19.1491    0.8326 H       1  UNL1        0.0000
     29 C           5.3423   17.5865   -1.2172 C.3     1  UNL1        0.0000
     30 H           4.6368   17.8240   -2.0094 H       1  UNL1        0.0000
     31 H           6.0057   16.8043   -1.5772 H       1  UNL1        0.0000
     32 H           5.9402   18.4744   -1.0156 H       1  UNL1        0.0000
     33 C           5.6298   16.8010    1.1365 C.3     1  UNL1        0.0000
     34 H           5.1157   16.5662    2.0706 H       1  UNL1        0.0000
     35 H           6.2887   17.6504    1.3159 H       1  UNL1        0.0000
     36 H           6.2451   15.9488    0.8512 H       1  UNL1        0.0000
@<TRIPOS>BOND
     1    17    16    1
     2    30    29    1
     3    22    20    1
     4    31    29    1
     5    21    20    1
     6    16    18    1
     7    16    19    1
     8    16     1    1
     9    29    32    1
    10    29    24    1
    11    20     1    1
    12    20    23    1
    13     1    24    1
    14     1     2    1
    15    26    25    1
    16    24    25    1
    17    24    33    1
    18    25    28    1
    19    25    27    1
    20     6     5    1
    21    36    33    1
    22    33    35    1
    23    33    34    1
    24     2     4    1
    25     5     4    1
    26     5     7    2
    27     4     3    1
    28     8     7    1
    29     7     9    1
    30     3    11    1
    31     9    11    2
    32     9    10    1
    33    11    12    1
    34    14    12    1
    35    12    15    1
    36    12    13    1
