@<TRIPOS>MOLECULE
2,3
 27 27 0 0 0
SMALL
GASTEIGER

@<TRIPOS>ATOM
      1 SI         10.9721    4.0628   -0.4307 Si      1  UNL1        0.0000
      2 N          10.9662    2.4603   -1.1029 N.3     1  UNL1        0.0000
      3 N           9.7028    0.8499   -2.0455 N.pl3   1  UNL1        0.0000
      4 C          10.2641    2.0831   -2.1805 C.3     1  UNL1        0.0000
      5 C          10.1015    2.8076   -3.3803 C.2     1  UNL1        0.0000
      6 H          10.5624    3.7775   -3.4710 H       1  UNL1        0.0000
      7 C           9.3690    2.2498   -4.3992 C.2     1  UNL1        0.0000
      8 H           9.2326    2.7866   -5.3272 H       1  UNL1        0.0000
      9 C           8.7981    0.9880   -4.2368 C.2     1  UNL1        0.0000
     10 H           8.2152    0.5391   -5.0249 H       1  UNL1        0.0000
     11 C           8.9878    0.3172   -3.0400 C.2     1  UNL1        0.0000
     12 C           8.4091   -1.0427   -2.7891 C.3     1  UNL1        0.0000
     13 H           8.3603   -1.2199   -1.7138 H       1  UNL1        0.0000
     14 H           9.0465   -1.8067   -3.2361 H       1  UNL1        0.0000
     15 H           7.4167   -1.1265   -3.2260 H       1  UNL1        0.0000
     16 C          12.4928    5.0474   -1.0555 C.3     1  UNL1        0.0000
     17 H          13.4235    4.5486   -0.8040 H       1  UNL1        0.0000
     18 H          12.5132    6.0294   -0.5976 H       1  UNL1        0.0000
     19 H          12.4760    5.1899   -2.1312 H       1  UNL1        0.0000
     20 C           9.3482    4.9907   -0.8545 C.3     1  UNL1        0.0000
     21 H           9.2971    5.2964   -1.8949 H       1  UNL1        0.0000
     22 H           9.2314    5.8817   -0.2465 H       1  UNL1        0.0000
     23 H           8.5019    4.3364   -0.6550 H       1  UNL1        0.0000
     24 C          11.0477    3.7600    1.4505 C.3     1  UNL1        0.0000
     25 H          11.8991    3.1203    1.6932 H       1  UNL1        0.0000
     26 H          10.1455    3.2079    1.7468 H       1  UNL1        0.0000
     27 H          11.1172    4.6665    2.0437 H       1  UNL1        0.0000
@<TRIPOS>BOND
     1     8     7    1
     2    10     9    1
     3     7     9    1
     4     7     5    2
     5     9    11    2
     6     6     5    1
     7     5     4    1
     8    14    12    1
     9    15    12    1
    10    11    12    1
    11    11     3    1
    12    12    13    1
    13     4     3    1
    14     4     2    1
    15    19    16    1
    16    21    20    1
    17     2     1    1
    18    16    17    1
    19    16    18    1
    20    16     1    1
    21    20    23    1
    22    20     1    1
    23    20    22    1
    24     1    24    1
    25    24    25    1
    26    24    26    1
    27    24    27    1
