@<TRIPOS>MOLECULE
1,2
 68 70 0 0 0
SMALL
GASTEIGER

@<TRIPOS>ATOM
      1 N          -4.1900   12.6465    4.8522 N.pl3   1  UNL1       -0.2149
      2 N          -4.9997   11.5705    3.0345 N.pl3   1  UNL1       -0.2148
      3 C          -4.3060   13.4524    5.9885 C.ar    1  UNL1        0.0566
      4 C          -3.2863   14.3802    6.2709 C.ar    1  UNL1       -0.0273
      5 C          -3.3109   15.0879    7.4581 C.ar    1  UNL1       -0.0541
      6 H          -2.5194   15.7951    7.6666 H       1  UNL1        0.0623
      7 C          -4.3304   14.9202    8.3874 C.ar    1  UNL1       -0.0498
      8 C          -5.3424   14.0240    8.0893 C.ar    1  UNL1       -0.0541
      9 H          -6.1537   13.8846    8.7918 H       1  UNL1        0.0623
     10 C          -5.3520   13.2891    6.9118 C.ar    1  UNL1       -0.0273
     11 C          -2.1970   14.6151    5.2661 C.3     1  UNL1       -0.0379
     12 H          -1.4903   15.3544    5.6364 H       1  UNL1        0.0278
     13 H          -2.6242   14.9779    4.3300 H       1  UNL1        0.0278
     14 H          -1.6595   13.6879    5.0437 H       1  UNL1        0.0278
     15 C          -4.3171   15.6810    9.6803 C.3     1  UNL1       -0.0397
     16 H          -4.0721   16.7278    9.5088 H       1  UNL1        0.0278
     17 H          -3.5637   15.2695   10.3537 H       1  UNL1        0.0278
     18 H          -5.2835   15.6235   10.1755 H       1  UNL1        0.0278
     19 C          -6.4857   12.3313    6.6745 C.3     1  UNL1       -0.0379
     20 H          -6.2435   11.6154    5.8920 H       1  UNL1        0.0278
     21 H          -7.3801   12.8719    6.3608 H       1  UNL1        0.0278
     22 H          -6.7233   11.7925    7.5913 H       1  UNL1        0.0278
     23 C          -5.1365   12.6049    3.9183 C.3     1  UNL1        0.1982
     24 C          -6.1830   13.5533    3.7664 C.2     1  UNL1       -0.0356
     25 H          -6.2426   14.3746    4.4635 H       1  UNL1        0.0612
     26 C          -7.0580   13.4199    2.7263 C.2     1  UNL1       -0.0601
     27 H          -7.8500   14.1411    2.5788 H       1  UNL1        0.0616
     28 C          -6.9314   12.3358    1.8532 C.2     1  UNL1       -0.0386
     29 H          -7.6238   12.1983    1.0370 H       1  UNL1        0.0637
     30 C          -5.8974   11.4383    2.0525 C.2     1  UNL1        0.0584
     31 C          -5.7945   10.2332    1.1852 C.ar    1  UNL1        0.0045
     32 C          -6.4415    9.0561    1.5846 C.ar    1  UNL1       -0.0353
     33 C          -6.3748    7.9413    0.7618 C.ar    1  UNL1       -0.0543
     34 H          -6.8745    7.0332    1.0587 H       1  UNL1        0.0623
     35 C          -5.6844    7.9656   -0.4417 C.ar    1  UNL1       -0.0442
     36 C          -5.0667    9.1448   -0.8257 C.ar    1  UNL1       -0.0543
     37 H          -4.5459    9.1738   -1.7712 H       1  UNL1        0.0623
     38 C          -5.1107   10.2843   -0.0314 C.ar    1  UNL1       -0.0353
     39 C          -7.2464    9.0229    2.8674 C.3     1  UNL1       -0.0209
     40 H          -6.7742    9.7094    3.5779 H       1  UNL1        0.0344
     41 C          -8.6730    9.5104    2.5888 C.3     1  UNL1       -0.0586
     42 H          -8.6692   10.5396    2.2435 H       1  UNL1        0.0235
     43 H          -9.2724    9.4547    3.4956 H       1  UNL1        0.0235
     44 H          -9.1392    8.8897    1.8255 H       1  UNL1        0.0235
     45 C          -7.3189    7.6400    3.5180 C.3     1  UNL1       -0.0586
     46 H          -6.3355    7.1826    3.5911 H       1  UNL1        0.0235
     47 H          -7.9713    6.9755    2.9554 H       1  UNL1        0.0235
     48 H          -7.7325    7.7328    4.5207 H       1  UNL1        0.0235
     49 C          -5.5965    6.7348   -1.3116 C.3     1  UNL1       -0.0215
     50 H          -5.0471    6.9987   -2.2225 H       1  UNL1        0.0343
     51 C          -4.8206    5.6274   -0.5932 C.3     1  UNL1       -0.0586
     52 H          -3.8208    5.9711   -0.3342 H       1  UNL1        0.0235
     53 H          -4.7301    4.7534   -1.2344 H       1  UNL1        0.0235
     54 H          -5.3297    5.3311    0.3212 H       1  UNL1        0.0235
     55 C          -6.9863    6.2448   -1.7215 C.3     1  UNL1       -0.0586
     56 H          -7.5396    7.0442   -2.2099 H       1  UNL1        0.0235
     57 H          -7.5542    5.9149   -0.8551 H       1  UNL1        0.0235
     58 H          -6.9025    5.4091   -2.4130 H       1  UNL1        0.0235
     59 C          -4.4776   11.5736   -0.5050 C.3     1  UNL1       -0.0209
     60 H          -4.2668   12.1905    0.3750 H       1  UNL1        0.0344
     61 C          -5.4684   12.3281   -1.3983 C.3     1  UNL1       -0.0586
     62 H          -6.3695   12.5817   -0.8475 H       1  UNL1        0.0235
     63 H          -5.7477   11.7153   -2.2536 H       1  UNL1        0.0235
     64 H          -5.0177   13.2487   -1.7627 H       1  UNL1        0.0235
     65 C          -3.1692   11.3624   -1.2703 C.3     1  UNL1       -0.0586
     66 H          -2.5095   10.6771   -0.7434 H       1  UNL1        0.0235
     67 H          -2.6549   12.3143   -1.3828 H       1  UNL1        0.0235
     68 H          -3.3563   10.9666   -2.2662 H       1  UNL1        0.0235
@<TRIPOS>BOND
     1    58    55    1
     2    68    65    1
     3    63    61    1
     4    50    49    1
     5    56    55    1
     6    37    36    1
     7    64    61    1
     8    55    49    1
     9    55    57    1
    10    61    62    1
    11    61    59    1
    12    67    65    1
    13    49    51    1
    14    49    35    1
    15    65    66    1
    16    65    59    1
    17    53    51    1
    18    36    35   ar
    19    36    38   ar
    20    51    52    1
    21    51    54    1
    22    59    38    1
    23    59    60    1
    24    35    33   ar
    25    38    31   ar
    26    33    34    1
    27    33    32   ar
    28    29    28    1
    29    31    32   ar
    30    31    30    1
    31    32    39    1
    32    44    41    1
    33    28    30    2
    34    28    26    1
    35    30     2    1
    36    42    41    1
    37    27    26    1
    38    41    39    1
    39    41    43    1
    40    26    24    2
    41    39    45    1
    42    39    40    1
    43    47    45    1
    44     2    23    1
    45    45    46    1
    46    45    48    1
    47    24    23    1
    48    24    25    1
    49    23     1    1
    50    13    11    1
    51     1     3    1
    52    14    11    1
    53    11    12    1
    54    11     4    1
    55    20    19    1
    56     3     4   ar
    57     3    10   ar
    58     4     5   ar
    59    21    19    1
    60    19    10    1
    61    19    22    1
    62    10     8   ar
    63     5     6    1
    64     5     7   ar
    65     8     7   ar
    66     8     9    1
    67     7    15    1
    68    16    15    1
    69    15    18    1
    70    15    17    1
