@<TRIPOS>MOLECULE
4,5
 39 38 0 0 0
SMALL
GASTEIGER

@<TRIPOS>ATOM
      1 P           1.2495    8.9976    5.2188 P.3     1  UNL1        0.0000
      2 SI          2.6410    8.7955    7.8604 Si      1  UNL1        0.0000
      3 SI          0.9906    8.3229    2.3122 Si      1  UNL1        0.0000
      4 N           2.5240    8.6675    6.1359 N.3     1  UNL1        0.0000
      5 N           1.8141    8.4165    3.8336 N.3     1  UNL1        0.0000
      6 O          -0.1608    8.4382    5.6981 O.3     1  UNL1        0.0000
      7 C          -0.3461    7.0329    5.8072 C.3     1  UNL1        0.0000
      8 H          -1.4014    6.8828    6.0371 H       1  UNL1        0.0000
      9 H           0.2744    6.6212    6.6072 H       1  UNL1        0.0000
     10 H          -0.0883    6.5319    4.8700 H       1  UNL1        0.0000
     11 O           0.8075   10.5305    5.2029 O.3     1  UNL1        0.0000
     12 C           1.8090   11.4801    4.8694 C.3     1  UNL1        0.0000
     13 H           1.3623   12.4635    5.0173 H       1  UNL1        0.0000
     14 H           2.1197   11.3576    3.8286 H       1  UNL1        0.0000
     15 H           2.6831   11.3572    5.5152 H       1  UNL1        0.0000
     16 C           1.0212    9.5247    8.5594 C.3     1  UNL1        0.0000
     17 H           0.6507   10.3229    7.9235 H       1  UNL1        0.0000
     18 H           1.1722    9.9279    9.5550 H       1  UNL1        0.0000
     19 H           0.2400    8.7737    8.6238 H       1  UNL1        0.0000
     20 C           4.1178    9.9650    8.2011 C.3     1  UNL1        0.0000
     21 H           4.9811    9.6577    7.6154 H       1  UNL1        0.0000
     22 H           4.3970    9.9295    9.2483 H       1  UNL1        0.0000
     23 H           3.8943   11.0000    7.9543 H       1  UNL1        0.0000
     24 C           2.9591    7.0416    8.5510 C.3     1  UNL1        0.0000
     25 H           3.8246    6.5990    8.0616 H       1  UNL1        0.0000
     26 H           2.1182    6.3699    8.3901 H       1  UNL1        0.0000
     27 H           3.1616    7.0715    9.6165 H       1  UNL1        0.0000
     28 C          -0.6953    9.2078    2.4371 C.3     1  UNL1        0.0000
     29 H          -1.3041    8.7899    3.2325 H       1  UNL1        0.0000
     30 H          -1.2507    9.1212    1.5093 H       1  UNL1        0.0000
     31 H          -0.5682   10.2645    2.6511 H       1  UNL1        0.0000
     32 C           2.1107    9.2017    1.0340 C.3     1  UNL1        0.0000
     33 H           3.0889    8.7289    1.0082 H       1  UNL1        0.0000
     34 H           2.2558   10.2545    1.2647 H       1  UNL1        0.0000
     35 H           1.6819    9.1358    0.0399 H       1  UNL1        0.0000
     36 C           0.7645    6.4649    1.9086 C.3     1  UNL1        0.0000
     37 H           1.5944    5.8861    2.3140 H       1  UNL1        0.0000
     38 H           0.7454    6.3036    0.8361 H       1  UNL1        0.0000
     39 H          -0.1571    6.0561    2.3165 H       1  UNL1        0.0000
@<TRIPOS>BOND
     1    35    32    1
     2    38    36    1
     3    33    32    1
     4    32    34    1
     5    32     3    1
     6    30    28    1
     7    36     3    1
     8    36    37    1
     9    36    39    1
    10     3    28    1
    11     3     5    1
    12    28    31    1
    13    28    29    1
    14    14    12    1
    15     5     1    1
    16    12    13    1
    17    12    11    1
    18    12    15    1
    19    10     7    1
    20    11     1    1
    21     1     6    1
    22     1     4    1
    23     6     7    1
    24     7     8    1
    25     7     9    1
    26     4     2    1
    27    21    20    1
    28     2    20    1
    29     2    24    1
    30     2    16    1
    31    17    16    1
    32    23    20    1
    33    25    24    1
    34    20    22    1
    35    26    24    1
    36    24    27    1
    37    16    19    1
    38    16    18    1
