@<TRIPOS>MOLECULE
3,11
 39 38 0 0 0
SMALL
GASTEIGER

@<TRIPOS>ATOM
      1 SI          2.6582   16.2904    1.2414 Si      1  UNL1        0.0000
      2 O           0.7315   18.1656    3.9039 O.3     1  UNL1        0.0000
      3 N           2.5030   16.4038    2.9550 N.3     1  UNL1        0.0000
      4 C           1.7365   19.1024    4.2597 C.3     1  UNL1        0.0000
      5 H           1.3032   20.0922    4.1180 H       1  UNL1        0.0000
      6 H           2.6168   18.9760    3.6220 H       1  UNL1        0.0000
      7 H           2.0333   18.9639    5.3029 H       1  UNL1        0.0000
      8 P           1.2064   16.6378    3.8723 P.3     1  UNL1        0.0000
      9 SI          0.9751   15.7694    6.7787 Si      1  UNL1        0.0000
     10 O          -0.1838   16.0440    3.3686 O.3     1  UNL1        0.0000
     11 N           1.7542   16.0890    5.2760 N.3     1  UNL1        0.0000
     12 C          -0.3428   14.6349    3.2789 C.3     1  UNL1        0.0000
     13 H          -1.4049   14.4591    3.1054 H       1  UNL1        0.0000
     14 H          -0.0249   14.1443    4.2034 H       1  UNL1        0.0000
     15 H           0.2423   14.2302    2.4492 H       1  UNL1        0.0000
     16 C           4.1945   17.3614    0.8378 C.3     1  UNL1        0.0000
     17 H           4.0046   18.4226    0.9744 H       1  UNL1        0.0000
     18 H           4.5074   17.2135   -0.1898 H       1  UNL1        0.0000
     19 H           5.0260   17.0819    1.4826 H       1  UNL1        0.0000
     20 C           2.9800   14.4628    0.7681 C.3     1  UNL1        0.0000
     21 H           3.8483   14.0809    1.3060 H       1  UNL1        0.0000
     22 H           3.1862   14.3636   -0.2931 H       1  UNL1        0.0000
     23 H           2.1421   13.8090    1.0037 H       1  UNL1        0.0000
     24 C           1.0950   16.9601    0.3757 C.3     1  UNL1        0.0000
     25 H           0.7584   17.8737    0.8556 H       1  UNL1        0.0000
     26 H           0.2756   16.2500    0.4235 H       1  UNL1        0.0000
     27 H           1.2844   17.1776   -0.6695 H       1  UNL1        0.0000
     28 C           2.0838   16.6256    8.0860 C.3     1  UNL1        0.0000
     29 H           3.1162   16.3004    7.9705 H       1  UNL1        0.0000
     30 H           1.7662   16.3713    9.0912 H       1  UNL1        0.0000
     31 H           2.0614   17.7088    7.9977 H       1  UNL1        0.0000
     32 C           0.9537   13.8696    7.0316 C.3     1  UNL1        0.0000
     33 H           0.0840   13.3935    6.5846 H       1  UNL1        0.0000
     34 H           0.9514   13.6199    8.0874 H       1  UNL1        0.0000
     35 H           1.8427   13.4152    6.5898 H       1  UNL1        0.0000
     36 C          -0.7922   16.4868    6.7993 C.3     1  UNL1        0.0000
     37 H          -1.4133   16.0288    6.0363 H       1  UNL1        0.0000
     38 H          -0.7750   17.5539    6.6021 H       1  UNL1        0.0000
     39 H          -1.2714   16.3313    7.7595 H       1  UNL1        0.0000
@<TRIPOS>BOND
     1    27    24    1
     2    22    20    1
     3    18    16    1
     4    24    26    1
     5    24    25    1
     6    24     1    1
     7    20    23    1
     8    20     1    1
     9    20    21    1
    10    16    17    1
    11    16     1    1
    12    16    19    1
    13     1     3    1
    14    15    12    1
    15     3     8    1
    16    13    12    1
    17    12    10    1
    18    12    14    1
    19    10     8    1
    20     6     4    1
    21     8     2    1
    22     8    11    1
    23     2     4    1
    24     5     4    1
    25     4     7    1
    26    11     9    1
    27    37    36    1
    28    33    32    1
    29    35    32    1
    30    38    36    1
    31     9    36    1
    32     9    32    1
    33     9    28    1
    34    36    39    1
    35    32    34    1
    36    29    28    1
    37    31    28    1
    38    28    30    1
