@<TRIPOS>MOLECULE
2,7
 41 41 0 0 0
SMALL
GASTEIGER

@<TRIPOS>ATOM
      1 P         -17.1939   17.4077    9.1512 P.3     1  UNL1        0.0000
      2 N         -15.8909   18.2949    9.2505 N.3     1  UNL1        0.0000
      3 F         -19.9229   19.0785    5.6611 F       1  UNL1        0.0000
      4 S         -18.2314   17.6082    7.2732 S.3     1  UNL1        0.0000
      5 SI        -15.5894   20.0256    9.1398 Si      1  UNL1        0.0000
      6 C         -19.6325   18.4314    7.9053 C.2     1  UNL1        0.0000
      7 N         -16.5736   15.9624    9.4169 N.3     1  UNL1        0.0000
      8 F         -21.5995   18.1550    6.6241 F       1  UNL1        0.0000
      9 S         -18.8051   17.9303   10.4553 S.3     1  UNL1        0.0000
     10 SI        -17.3064   14.4210    8.9411 Si      1  UNL1        0.0000
     11 C         -19.8851   18.5417    9.2264 C.2     1  UNL1        0.0000
     12 F         -21.0366   20.1760    7.1178 F       1  UNL1        0.0000
     13 C         -20.5548   18.9646    6.8325 C.3     1  UNL1        0.0000
     14 C         -21.0895   19.2535    9.7964 C.3     1  UNL1        0.0000
     15 F         -22.2136   19.0059    9.1239 F       1  UNL1        0.0000
     16 F         -20.9163   20.5822    9.8135 F       1  UNL1        0.0000
     17 C         -17.1648   20.9035    8.5135 C.3     1  UNL1        0.0000
     18 H         -17.4672   20.5513    7.5307 H       1  UNL1        0.0000
     19 H         -16.9854   21.9695    8.4302 H       1  UNL1        0.0000
     20 H         -18.0034   20.7751    9.1933 H       1  UNL1        0.0000
     21 F         -21.3176   18.8868   11.0609 F       1  UNL1        0.0000
     22 C         -15.1490   20.5670   10.9133 C.3     1  UNL1        0.0000
     23 H         -14.3338   19.9643   11.3060 H       1  UNL1        0.0000
     24 H         -15.9938   20.4652   11.5905 H       1  UNL1        0.0000
     25 H         -14.8344   21.6047   10.9311 H       1  UNL1        0.0000
     26 C         -14.1664   20.1655    7.8828 C.3     1  UNL1        0.0000
     27 H         -14.4761   19.8521    6.8869 H       1  UNL1        0.0000
     28 H         -13.3281   19.5358    8.1812 H       1  UNL1        0.0000
     29 H         -13.8069   21.1866    7.8127 H       1  UNL1        0.0000
     30 C         -19.2071   14.6071    8.9998 C.3     1  UNL1        0.0000
     31 H         -19.5395   15.0361    9.9415 H       1  UNL1        0.0000
     32 H         -19.6751   13.6333    8.9071 H       1  UNL1        0.0000
     33 H         -19.5918   15.2248    8.1932 H       1  UNL1        0.0000
     34 C         -16.7370   13.1720   10.2570 C.3     1  UNL1        0.0000
     35 H         -17.1377   13.4134   11.2386 H       1  UNL1        0.0000
     36 H         -15.6540   13.1443   10.3344 H       1  UNL1        0.0000
     37 H         -17.0783   12.1767    9.9962 H       1  UNL1        0.0000
     38 C         -16.6856   14.1356    7.1572 C.3     1  UNL1        0.0000
     39 H         -15.6058   13.9869    7.1503 H       1  UNL1        0.0000
     40 H         -16.9012   14.9938    6.5184 H       1  UNL1        0.0000
     41 H         -17.1420   13.2614    6.7044 H       1  UNL1        0.0000
@<TRIPOS>BOND
     1     3    13    1
     2    40    38    1
     3     8    13    1
     4    41    38    1
     5    13    12    1
     6    13     6    1
     7    27    26    1
     8    39    38    1
     9    38    10    1
    10     4     6    1
    11     4     1    1
    12    18    17    1
    13    29    26    1
    14    26    28    1
    15    26     5    1
    16     6    11    2
    17    33    30    1
    18    19    17    1
    19    17     5    1
    20    17    20    1
    21    32    30    1
    22    10    30    1
    23    10     7    1
    24    10    34    1
    25    30    31    1
    26    15    14    1
    27     5     2    1
    28     5    22    1
    29     1     2    1
    30     1     7    1
    31     1     9    1
    32    11    14    1
    33    11     9    1
    34    14    16    1
    35    14    21    1
    36    37    34    1
    37    34    36    1
    38    34    35    1
    39    22    25    1
    40    22    23    1
    41    22    24    1
