@<TRIPOS>MOLECULE
1,15
 34 33 0 0 0
SMALL
GASTEIGER

@<TRIPOS>ATOM
      1 N          -0.2268   -1.0719    7.1486 N.3     1  UNL1        0.0000
      2 SI         -0.8248   -2.7220    7.2044 Si      1  UNL1        0.0000
      3 C           0.4886   -3.8263    8.0402 C.3     1  UNL1        0.0000
      4 H           0.2759   -4.8705    7.8366 H       1  UNL1        0.0000
      5 H           0.5115   -3.7035    9.1197 H       1  UNL1        0.0000
      6 H           1.4819   -3.6111    7.6535 H       1  UNL1        0.0000
      7 C          -2.4583   -2.7483    8.1891 C.3     1  UNL1        0.0000
      8 H          -2.8777   -3.7481    8.1735 H       1  UNL1        0.0000
      9 H          -3.1986   -2.0745    7.7675 H       1  UNL1        0.0000
     10 H          -2.3100   -2.4724    9.2291 H       1  UNL1        0.0000
     11 C          -1.0898   -3.1326    5.3635 C.3     1  UNL1        0.0000
     12 H          -1.7627   -2.4213    4.8871 H       1  UNL1        0.0000
     13 H          -1.5073   -4.1258    5.2363 H       1  UNL1        0.0000
     14 H          -0.1432   -3.0976    4.8259 H       1  UNL1        0.0000
     15 N           0.1273    1.3570    6.9716 N.3     1  UNL1        0.0000
     16 SI          0.0228    3.0994    6.7798 Si      1  UNL1        0.0000
     17 C           1.6120    3.8927    7.4784 C.3     1  UNL1        0.0000
     18 H           1.6204    3.9239    8.5646 H       1  UNL1        0.0000
     19 H           1.7009    4.9141    7.1236 H       1  UNL1        0.0000
     20 H           2.4954    3.3514    7.1481 H       1  UNL1        0.0000
     21 C          -0.1510    3.3029    4.8940 C.3     1  UNL1        0.0000
     22 H          -0.2710    4.3453    4.6186 H       1  UNL1        0.0000
     23 H          -1.0079    2.7523    4.5088 H       1  UNL1        0.0000
     24 H           0.7356    2.9241    4.3872 H       1  UNL1        0.0000
     25 C          -1.5164    3.7271    7.7153 C.3     1  UNL1        0.0000
     26 H          -1.6360    4.7918    7.5484 H       1  UNL1        0.0000
     27 H          -1.4318    3.5718    8.7870 H       1  UNL1        0.0000
     28 H          -2.4254    3.2373    7.3780 H       1  UNL1        0.0000
     29 P          -0.4177    0.2626    7.9712 P.3     1  UNL1        0.0000
     30 CL         -2.0995    0.5759    8.9073 Cl      1  UNL1        0.0000
     31 C           0.8458    0.1815    9.3848 C.3     1  UNL1        0.0000
     32 CL          2.3404   -0.1028    8.4728 Cl      1  UNL1        0.0000
     33 CL          0.5275   -1.1556   10.4669 Cl      1  UNL1        0.0000
     34 CL          0.9431    1.6934   10.2595 Cl      1  UNL1        0.0000
@<TRIPOS>BOND
     1    24    21    1
     2    23    21    1
     3    22    21    1
     4    14    11    1
     5    12    11    1
     6    21    16    1
     7    13    11    1
     8    11     2    1
     9    16    15    1
    10    16    17    1
    11    16    25    1
    12    15    29    1
    13    19    17    1
    14    20    17    1
    15     1     2    1
    16     1    29    1
    17     2     3    1
    18     2     7    1
    19    28    25    1
    20    17    18    1
    21    26    25    1
    22     6     3    1
    23    25    27    1
    24     9     7    1
    25     4     3    1
    26    29    30    1
    27    29    31    1
    28     3     5    1
    29     8     7    1
    30     7    10    1
    31    32    31    1
    32    31    34    1
    33    31    33    1
