@<TRIPOS>MOLECULE
2,3
 43 45 0 0 0
SMALL
GASTEIGER

@<TRIPOS>ATOM
      1 O          14.1311    9.5365    7.5168 O.3     1  UNL1       -0.3475
      2 N          11.7738    6.5696    9.5920 N.pl3   1  UNL1       -0.2140
      3 N          12.8393    7.7425    7.1316 N.3     1  UNL1       -0.1908
      4 C          13.2540    8.5017    9.4451 C.ar    1  UNL1        0.0278
      5 C          12.4159    7.5974   10.1714 C.ar    1  UNL1        0.0611
      6 C          10.8798    5.8498   10.4266 C.ar    1  UNL1        0.0595
      7 C          13.3807    8.5232    8.0173 C.3     1  UNL1        0.2129
      8 C          11.3300    4.7446   11.1646 C.ar    1  UNL1       -0.0272
      9 C           9.5413    6.2592   10.5253 C.ar    1  UNL1       -0.0272
     10 C          13.1389    8.2917    5.8008 C.3     1  UNL1        0.0577
     11 C          13.9706    9.4923   10.1447 C.ar    1  UNL1       -0.0525
     12 H          14.6171   10.1407    9.5748 H       1  UNL1        0.0622
     13 C          12.2987    7.8441   11.5701 C.ar    1  UNL1       -0.0383
     14 H          11.6369    7.2111   12.1433 H       1  UNL1        0.0637
     15 C           8.6692    5.5390   11.3294 C.ar    1  UNL1       -0.0570
     16 H           7.6372    5.8525   11.4035 H       1  UNL1        0.0621
     17 C           9.0837    7.4866    9.7944 C.3     1  UNL1       -0.0379
     18 H           9.5132    7.5147    8.7888 H       1  UNL1        0.0278
     19 H           7.9982    7.5176    9.7305 H       1  UNL1        0.0278
     20 H           9.4253    8.3790   10.3213 H       1  UNL1        0.0278
     21 C          13.8646    9.6595   11.4987 C.ar    1  UNL1       -0.0612
     22 H          14.4295   10.4256   12.0065 H       1  UNL1        0.0618
     23 C          12.7758    4.3549   11.0928 C.3     1  UNL1       -0.0379
     24 H          13.1078    4.3361   10.0473 H       1  UNL1        0.0278
     25 H          13.3891    5.0873   11.6206 H       1  UNL1        0.0278
     26 H          12.9392    3.3797   11.5473 H       1  UNL1        0.0278
     27 C          12.9961    8.8279   12.2103 C.ar    1  UNL1       -0.0599
     28 H          12.8771    8.9600   13.2768 H       1  UNL1        0.0618
     29 C          10.4367    4.0577   11.9711 C.ar    1  UNL1       -0.0570
     30 H          10.7874    3.2206   12.5597 H       1  UNL1        0.0621
     31 C          13.7312    7.2381    4.8696 C.3     1  UNL1       -0.0433
     32 H          13.9953    7.6982    3.9193 H       1  UNL1        0.0249
     33 H          14.6225    6.7970    5.3113 H       1  UNL1        0.0249
     34 H          12.9972    6.4520    4.6931 H       1  UNL1        0.0249
     35 C           9.1100    4.4445   12.0520 C.ar    1  UNL1       -0.0611
     36 H           8.4248    3.9043   12.6890 H       1  UNL1        0.0618
     37 C          11.8607    8.8738    5.1883 C.3     1  UNL1       -0.0433
     38 H          12.0904    9.3532    4.2391 H       1  UNL1        0.0249
     39 H          11.1396    8.0790    5.0180 H       1  UNL1        0.0249
     40 H          11.4238    9.6103    5.8604 H       1  UNL1        0.0249
     41 C          14.1572    9.4126    6.1115 C.3     1  UNL1        0.0698
     42 H          15.1743    9.1498    5.7980 H       1  UNL1        0.0579
     43 H          13.8835   10.3736    5.6693 H       1  UNL1        0.0579
@<TRIPOS>BOND
     1    32    31    1
     2    38    37    1
     3    34    31    1
     4    31    33    1
     5    31    10    1
     6    39    37    1
     7    37    10    1
     8    37    40    1
     9    43    41    1
    10    42    41    1
    11    10    41    1
    12    10     3    1
    13    41     1    1
    14     3     7    1
    15     1     7    1
    16     7     4    1
    17    18    17    1
    18     4    11   ar
    19     4     5   ar
    20    12    11    1
    21     2     5    1
    22     2     6    1
    23    19    17    1
    24    17    20    1
    25    17     9    1
    26    24    23    1
    27    11    21   ar
    28     5    13   ar
    29     6     9   ar
    30     6     8   ar
    31     9    15   ar
    32    23     8    1
    33    23    26    1
    34    23    25    1
    35     8    29   ar
    36    15    16    1
    37    15    35   ar
    38    21    22    1
    39    21    27   ar
    40    13    14    1
    41    13    27   ar
    42    29    35   ar
    43    29    30    1
    44    35    36    1
    45    27    28    1
