@<TRIPOS>MOLECULE
1,3
 55 57 0 0 0
SMALL
GASTEIGER

@<TRIPOS>ATOM
      1 N           3.0055    8.7133   14.6130 N.pl3   1  UNL1       -0.2140
      2 O          -0.0855    5.7038   15.2427 O.3     1  UNL1       -0.3475
      3 N           1.8983    5.9599   14.2346 N.3     1  UNL1       -0.1908
      4 C           0.8943    7.8370   15.4904 C.ar    1  UNL1        0.0278
      5 C           1.8202    8.8943   15.2168 C.ar    1  UNL1        0.0611
      6 C           3.7044    9.8962   14.2584 C.ar    1  UNL1        0.0605
      7 C          -0.2576    8.1117   16.2567 C.ar    1  UNL1       -0.0525
      8 H          -0.9174    7.2883   16.4794 H       1  UNL1        0.0622
      9 C           3.3746   10.5480   13.0546 C.ar    1  UNL1       -0.0216
     10 C           0.9811    6.5021   14.9730 C.3     1  UNL1        0.2129
     11 C           1.4171   10.1941   15.6519 C.ar    1  UNL1       -0.0383
     12 H           2.0634   11.0269   15.4179 H       1  UNL1        0.0637
     13 C           3.9973   11.7478   12.7420 C.ar    1  UNL1       -0.0565
     14 H           3.7360   12.2671   11.8326 H       1  UNL1        0.0621
     15 C           0.2788   10.4233   16.3694 C.ar    1  UNL1       -0.0599
     16 H           0.0385   11.4296   16.6833 H       1  UNL1        0.0618
     17 C           4.6982   10.4313   15.1014 C.ar    1  UNL1       -0.0216
     18 C          -0.5693    9.3653   16.7058 C.ar    1  UNL1       -0.0612
     19 H          -1.4578    9.5379   17.2928 H       1  UNL1        0.0618
     20 C           4.9306   12.3052   13.5947 C.ar    1  UNL1       -0.0611
     21 H           5.3858   13.2551   13.3547 H       1  UNL1        0.0618
     22 C           2.3337    9.9651   12.1226 C.3     1  UNL1       -0.0197
     23 H           2.1712    8.9153   12.4054 H       1  UNL1        0.0344
     24 C           5.1059    9.7039   16.3669 C.3     1  UNL1       -0.0197
     25 H           5.0607    8.6213   16.1528 H       1  UNL1        0.0344
     26 C           2.7883    9.9966   10.6609 C.3     1  UNL1       -0.0586
     27 H           2.1034    9.4123   10.0501 H       1  UNL1        0.0235
     28 H           2.7988   11.0121   10.2720 H       1  UNL1        0.0235
     29 H           3.7856    9.5752   10.5552 H       1  UNL1        0.0235
     30 C           5.2827   11.6416   14.7562 C.ar    1  UNL1       -0.0565
     31 H           6.0114   12.0938   15.4108 H       1  UNL1        0.0621
     32 C           1.0055   10.7137   12.2697 C.3     1  UNL1       -0.0586
     33 H           0.6261   10.6265   13.2850 H       1  UNL1        0.0235
     34 H           1.1381   11.7694   12.0402 H       1  UNL1        0.0235
     35 H           0.2646   10.3018   11.5875 H       1  UNL1        0.0235
     36 C           4.1494   10.0059   17.5256 C.3     1  UNL1       -0.0586
     37 H           4.4912    9.5018   18.4275 H       1  UNL1        0.0235
     38 H           4.1191   11.0773   17.7169 H       1  UNL1        0.0235
     39 H           3.1407    9.6692   17.3062 H       1  UNL1        0.0235
     40 C           1.4463    4.6232   13.8362 C.3     1  UNL1        0.0577
     41 C           0.1374    4.4466   14.6419 C.3     1  UNL1        0.0698
     42 H          -0.7210    4.2015   14.0108 H       1  UNL1        0.0579
     43 H           0.2305    3.6898   15.4289 H       1  UNL1        0.0579
     44 C           1.1750    4.6097   12.3285 C.3     1  UNL1       -0.0433
     45 H           0.7980    3.6348   12.0264 H       1  UNL1        0.0249
     46 H           0.4381    5.3692   12.0731 H       1  UNL1        0.0249
     47 H           2.0953    4.8191   11.7880 H       1  UNL1        0.0249
     48 C           6.5307   10.0430   16.8105 C.3     1  UNL1       -0.0586
     49 H           6.8567    9.3387   17.5735 H       1  UNL1        0.0235
     50 H           7.2223    9.9939   15.9755 H       1  UNL1        0.0235
     51 H           6.5758   11.0388   17.2468 H       1  UNL1        0.0235
     52 C           2.4744    3.5525   14.1975 C.3     1  UNL1       -0.0433
     53 H           2.0682    2.5668   13.9771 H       1  UNL1        0.0249
     54 H           3.3806    3.6997   13.6123 H       1  UNL1        0.0249
     55 H           2.7253    3.6048   15.2555 H       1  UNL1        0.0249
@<TRIPOS>BOND
     1    27    26    1
     2    28    26    1
     3    29    26    1
     4    26    22    1
     5    35    32    1
     6    47    44    1
     7    14    13    1
     8    45    44    1
     9    34    32    1
    10    46    44    1
    11    22    32    1
    12    22    23    1
    13    22     9    1
    14    32    33    1
    15    44    40    1
    16    13     9   ar
    17    13    20   ar
    18     9     6   ar
    19    21    20    1
    20    20    30   ar
    21    54    52    1
    22    40    52    1
    23    40     3    1
    24    40    41    1
    25    53    52    1
    26    42    41    1
    27    52    55    1
    28     3    10    1
    29     6     1    1
    30     6    17   ar
    31     1     5    1
    32    41     2    1
    33    41    43    1
    34    30    17   ar
    35    30    31    1
    36    10     2    1
    37    10     4    1
    38    17    24    1
    39     5     4   ar
    40     5    11   ar
    41    12    11    1
    42     4     7   ar
    43    11    15   ar
    44    50    48    1
    45    25    24    1
    46     7     8    1
    47     7    18   ar
    48    24    48    1
    49    24    36    1
    50    15    16    1
    51    15    18   ar
    52    18    19    1
    53    48    51    1
    54    48    49    1
    55    39    36    1
    56    36    38    1
    57    36    37    1
