@<TRIPOS>MOLECULE
2,3
 43 45 0 0 0
SMALL
GASTEIGER

@<TRIPOS>ATOM
      1 O           1.9640   -0.2447    2.5150 O.3     1  UNL1       -0.3475
      2 N           4.2575    2.8117    0.4671 N.pl3   1  UNL1       -0.2140
      3 N           3.1917    1.5801    2.9397 N.3     1  UNL1       -0.1908
      4 C           2.7188    0.9215    0.6060 C.ar    1  UNL1        0.0278
      5 C           2.6520    0.8240    2.0350 C.3     1  UNL1        0.2129
      6 C           5.1587    3.5316   -0.3538 C.ar    1  UNL1        0.0595
      7 C           4.7235    4.6311   -1.1106 C.ar    1  UNL1       -0.0272
      8 C           2.0220   -0.2140    3.9249 C.3     1  UNL1        0.0698
      9 H           2.4262   -1.1657    4.2808 H       1  UNL1        0.0579
     10 H           1.0074   -0.0871    4.3179 H       1  UNL1        0.0579
     11 C           6.5030    3.1329   -0.4068 C.ar    1  UNL1       -0.0272
     12 C           5.6332    5.3077   -1.9077 C.ar    1  UNL1       -0.0570
     13 H           5.2947    6.1375   -2.5135 H       1  UNL1        0.0621
     14 C           3.2783    5.0286   -1.0670 C.3     1  UNL1       -0.0379
     15 H           2.9530    5.1479   -0.0281 H       1  UNL1        0.0278
     16 H           3.1144    5.9593   -1.6068 H       1  UNL1        0.0278
     17 H           2.6584    4.2532   -1.5199 H       1  UNL1        0.0278
     18 C           3.5617    1.8266   -0.1163 C.ar    1  UNL1        0.0611
     19 C           1.9963   -0.1331   -1.4693 C.ar    1  UNL1       -0.0612
     20 H           1.3826   -0.8543   -1.9861 H       1  UNL1        0.0618
     21 C           1.9441   -0.0150   -0.1073 C.ar    1  UNL1       -0.0525
     22 H           1.2926   -0.6614    0.4596 H       1  UNL1        0.0622
     23 C           2.8819    0.6837   -2.1778 C.ar    1  UNL1       -0.0599
     24 H           2.9696    0.5803   -3.2506 H       1  UNL1        0.0618
     25 C           2.9381    0.9891    4.2563 C.3     1  UNL1        0.0577
     26 C           6.9451    1.9265    0.3667 C.3     1  UNL1       -0.0379
     27 H           8.0291    1.8378    0.3600 H       1  UNL1        0.0278
     28 H           6.5907    1.9827    1.3991 H       1  UNL1        0.0278
     29 H           6.5178    1.0256   -0.0758 H       1  UNL1        0.0278
     30 C           7.3911    3.8427   -1.2018 C.ar    1  UNL1       -0.0570
     31 H           8.4264    3.5345   -1.2450 H       1  UNL1        0.0621
     32 C           4.2634    0.5301    4.8723 C.3     1  UNL1       -0.0433
     33 H           4.0821    0.0490    5.8312 H       1  UNL1        0.0249
     34 H           4.7611   -0.1759    4.2099 H       1  UNL1        0.0249
     35 H           4.9156    1.3886    5.0225 H       1  UNL1        0.0249
     36 C           6.9618    4.9212   -1.9557 C.ar    1  UNL1       -0.0611
     37 H           7.6596    5.4517   -2.5873 H       1  UNL1        0.0618
     38 C           2.2412    1.9822    5.1866 C.3     1  UNL1       -0.0433
     39 H           1.9684    1.4843    6.1154 H       1  UNL1        0.0249
     40 H           2.9127    2.8085    5.4143 H       1  UNL1        0.0249
     41 H           1.3411    2.3775    4.7183 H       1  UNL1        0.0249
     42 C           3.6366    1.6143   -1.5249 C.ar    1  UNL1       -0.0383
     43 H           4.3178    2.2317   -2.0924 H       1  UNL1        0.0637
@<TRIPOS>BOND
     1    24    23    1
     2    37    36    1
     3    13    12    1
     4    23    42   ar
     5    23    19   ar
     6    43    42    1
     7    20    19    1
     8    36    12   ar
     9    36    30   ar
    10    12     7   ar
    11    16    14    1
    12    42    18   ar
    13    17    14    1
    14    19    21   ar
    15    31    30    1
    16    30    11   ar
    17     7    14    1
    18     7     6   ar
    19    14    15    1
    20    11     6   ar
    21    11    26    1
    22     6     2    1
    23    18     2    1
    24    18     4   ar
    25    21    22    1
    26    21     4   ar
    27    29    26    1
    28    27    26    1
    29    26    28    1
    30     4     5    1
    31     5     1    1
    32     5     3    1
    33     1     8    1
    34     3    25    1
    35     8    25    1
    36     8     9    1
    37     8    10    1
    38    34    32    1
    39    25    32    1
    40    25    38    1
    41    41    38    1
    42    32    35    1
    43    32    33    1
    44    38    40    1
    45    38    39    1
