@<TRIPOS>MOLECULE
2,3
 55 57 0 0 0
SMALL
GASTEIGER

@<TRIPOS>ATOM
      1 O           4.4688   14.0015   13.3550 O.3     1  UNL1       -0.3475
      2 N           1.9065   11.1741   15.2757 N.pl3   1  UNL1       -0.2140
      3 N           3.6147   11.9412   13.1393 N.3     1  UNL1       -0.1908
      4 C           2.8119   13.4046   14.9421 C.ar    1  UNL1        0.0278
      5 C           2.0915   12.4314   15.7085 C.ar    1  UNL1        0.0611
      6 C           1.5760   12.8684   16.9599 C.ar    1  UNL1       -0.0383
      7 H           1.0733   12.1375   17.5774 H       1  UNL1        0.0637
      8 C           3.5899   13.0683   13.7883 C.3     1  UNL1        0.2129
      9 C           1.5548   10.1944   16.2399 C.ar    1  UNL1        0.0605
     10 C           2.5714    9.6369   17.0375 C.ar    1  UNL1       -0.0216
     11 C           0.2298    9.7533   16.3820 C.ar    1  UNL1       -0.0216
     12 C           2.8727   14.7361   15.3941 C.ar    1  UNL1       -0.0525
     13 H           3.3967   15.4524   14.7801 H       1  UNL1        0.0622
     14 C           1.6628   14.1686   17.3698 C.ar    1  UNL1       -0.0599
     15 H           1.2310   14.4609   18.3167 H       1  UNL1        0.0618
     16 C           2.2988   15.1273   16.5737 C.ar    1  UNL1       -0.0612
     17 H           2.3472   16.1558   16.8952 H       1  UNL1        0.0618
     18 C           4.0127   10.0518   16.8376 C.3     1  UNL1       -0.0197
     19 H           4.0775   10.6030   15.8887 H       1  UNL1        0.0344
     20 C          -0.8701   10.3039   15.5018 C.3     1  UNL1       -0.0197
     21 H          -0.4266   11.0287   14.7997 H       1  UNL1        0.0344
     22 C           5.1594   13.4704   12.2390 C.3     1  UNL1        0.0698
     23 H           6.2328   13.5809   12.4088 H       1  UNL1        0.0579
     24 H           4.8756   14.0382   11.3460 H       1  UNL1        0.0579
     25 C           4.7075   11.9927   12.1635 C.3     1  UNL1        0.0577
     26 C           2.2352    8.6916   17.9937 C.ar    1  UNL1       -0.0565
     27 H           3.0040    8.2725   18.6249 H       1  UNL1        0.0621
     28 C           4.9379    8.8374   16.7287 C.3     1  UNL1       -0.0586
     29 H           5.9352    9.1566   16.4318 H       1  UNL1        0.0235
     30 H           5.0221    8.3165   17.6791 H       1  UNL1        0.0235
     31 H           4.5601    8.1405   15.9837 H       1  UNL1        0.0235
     32 C           4.4665   10.9780   17.9685 C.3     1  UNL1       -0.0586
     33 H           5.5020   11.2782   17.8202 H       1  UNL1        0.0235
     34 H           3.8487   11.8731   17.9984 H       1  UNL1        0.0235
     35 H           4.3876   10.4721   18.9287 H       1  UNL1        0.0235
     36 C           0.9263    8.2772   18.1566 C.ar    1  UNL1       -0.0611
     37 H           0.6791    7.5461   18.9120 H       1  UNL1        0.0618
     38 C          -0.0625    8.7952   17.3426 C.ar    1  UNL1       -0.0565
     39 H          -1.0805    8.4569   17.4662 H       1  UNL1        0.0621
     40 C           4.2153   11.6032   10.7710 C.3     1  UNL1       -0.0433
     41 H           5.0295   11.6850   10.0539 H       1  UNL1        0.0249
     42 H           3.8564   10.5724   10.7850 H       1  UNL1        0.0249
     43 H           3.4012   12.2543   10.4585 H       1  UNL1        0.0249
     44 C          -1.5004    9.1806   14.6731 C.3     1  UNL1       -0.0586
     45 H          -2.2445    9.5892   13.9924 H       1  UNL1        0.0235
     46 H          -0.7312    8.6723   14.0879 H       1  UNL1        0.0235
     47 H          -1.9886    8.4500   15.3137 H       1  UNL1        0.0235
     48 C          -1.9294   11.0336   16.3303 C.3     1  UNL1       -0.0586
     49 H          -2.7002   11.4402   15.6791 H       1  UNL1        0.0235
     50 H          -2.4021   10.3588   17.0403 H       1  UNL1        0.0235
     51 H          -1.4788   11.8550   16.8827 H       1  UNL1        0.0235
     52 C           5.8203   11.0406   12.6172 C.3     1  UNL1       -0.0433
     53 H           6.6513   11.0722   11.9162 H       1  UNL1        0.0249
     54 H           6.1786   11.3240   13.6054 H       1  UNL1        0.0249
     55 H           5.4332   10.0234   12.6660 H       1  UNL1        0.0249
@<TRIPOS>BOND
     1    41    40    1
     2    43    40    1
     3    40    42    1
     4    40    25    1
     5    24    22    1
     6    53    52    1
     7    25    22    1
     8    25    52    1
     9    25     3    1
    10    22    23    1
    11    22     1    1
    12    52    55    1
    13    52    54    1
    14     3     8    1
    15     1     8    1
    16     8     4    1
    17    45    44    1
    18    46    44    1
    19    44    47    1
    20    44    20    1
    21    13    12    1
    22    21    20    1
    23     4    12   ar
    24     4     5   ar
    25     2     5    1
    26     2     9    1
    27    12    16   ar
    28    20    48    1
    29    20    11    1
    30    49    48    1
    31     5     6   ar
    32    19    18    1
    33    31    28    1
    34     9    11   ar
    35     9    10   ar
    36    48    51    1
    37    48    50    1
    38    11    38   ar
    39    29    28    1
    40    16    17    1
    41    16    14   ar
    42    28    18    1
    43    28    30    1
    44    18    10    1
    45    18    32    1
    46     6    14   ar
    47     6     7    1
    48    10    26   ar
    49    38    39    1
    50    38    36   ar
    51    14    15    1
    52    33    32    1
    53    32    34    1
    54    32    35    1
    55    26    36   ar
    56    26    27    1
    57    36    37    1
