@<TRIPOS>MOLECULE
3,4
 38 38 0 0 0
SMALL
GASTEIGER

@<TRIPOS>ATOM
      1 SI          7.3352   16.4897    1.4626 Si      1  UNL1        0.0000
      2 SI          8.0658   11.3225    3.9734 Si      1  UNL1        0.0000
      3 N           8.1191   15.3282    2.4838 N.pl3   1  UNL1        0.0000
      4 N           8.4505   12.9771    3.6256 N.pl3   1  UNL1        0.0000
      5 C           9.2781   14.6531    2.1467 C.ar    1  UNL1        0.0000
      6 C           9.4581   13.3768    2.7669 C.ar    1  UNL1        0.0000
      7 C          10.5802   12.6214    2.4358 C.ar    1  UNL1        0.0000
      8 H          10.7125   11.6541    2.8949 H       1  UNL1        0.0000
      9 C          11.5250   13.1000    1.5439 C.ar    1  UNL1        0.0000
     10 H          12.3950   12.5026    1.3152 H       1  UNL1        0.0000
     11 C          11.3506   14.3349    0.9435 C.ar    1  UNL1        0.0000
     12 H          12.0837   14.7072    0.2434 H       1  UNL1        0.0000
     13 C          10.2307   15.0962    1.2327 C.ar    1  UNL1        0.0000
     14 H          10.0913   16.0539    0.7561 H       1  UNL1        0.0000
     15 C           7.0712   15.7835   -0.2967 C.3     1  UNL1        0.0000
     16 H           6.5252   16.4854   -0.9179 H       1  UNL1        0.0000
     17 H           6.5036   14.8580   -0.2645 H       1  UNL1        0.0000
     18 H           8.0145   15.5696   -0.7894 H       1  UNL1        0.0000
     19 C           8.2206   18.1926    1.3010 C.3     1  UNL1        0.0000
     20 H           8.2962   18.7052    2.2564 H       1  UNL1        0.0000
     21 H           7.6483   18.8353    0.6393 H       1  UNL1        0.0000
     22 H           9.2220   18.1198    0.8880 H       1  UNL1        0.0000
     23 C           5.6617   16.8289    2.3171 C.3     1  UNL1        0.0000
     24 H           4.9383   16.0504    2.0957 H       1  UNL1        0.0000
     25 H           5.2366   17.7697    1.9833 H       1  UNL1        0.0000
     26 H           5.7746   16.8712    3.4039 H       1  UNL1        0.0000
     27 C           7.8543   10.3160    2.3593 C.3     1  UNL1        0.0000
     28 H           7.1153   10.7735    1.7079 H       1  UNL1        0.0000
     29 H           7.5256    9.3048    2.5744 H       1  UNL1        0.0000
     30 H           8.7831   10.2504    1.8016 H       1  UNL1        0.0000
     31 C           9.3197   10.3930    5.1019 C.3     1  UNL1        0.0000
     32 H          10.3241   10.3566    4.6913 H       1  UNL1        0.0000
     33 H           8.9922    9.3667    5.2362 H       1  UNL1        0.0000
     34 H           9.3855   10.8386    6.0910 H       1  UNL1        0.0000
     35 C           6.4229   11.4052    4.9429 C.3     1  UNL1        0.0000
     36 H           6.4185   12.2468    5.6410 H       1  UNL1        0.0000
     37 H           6.2572   10.4942    5.5084 H       1  UNL1        0.0000
     38 H           5.5751   11.5312    4.2768 H       1  UNL1        0.0000
@<TRIPOS>BOND
     1    16    15    1
     2    18    15    1
     3    15    17    1
     4    15     1    1
     5    12    11    1
     6    21    19    1
     7    14    13    1
     8    22    19    1
     9    11    13   ar
    10    11     9   ar
    11    13     5   ar
    12    19     1    1
    13    19    20    1
    14    10     9    1
    15     1    23    1
    16     1     3    1
    17     9     7   ar
    18    28    27    1
    19    30    27    1
    20    25    23    1
    21    24    23    1
    22     5     3    1
    23     5     6   ar
    24    23    26    1
    25    27    29    1
    26    27     2    1
    27     7     6   ar
    28     7     8    1
    29     6     4    1
    30     4     2    1
    31     2    35    1
    32     2    31    1
    33    38    35    1
    34    32    31    1
    35    35    37    1
    36    35    36    1
    37    31    33    1
    38    31    34    1
