@<TRIPOS>MOLECULE
3,4
 38 38 0 0 0
SMALL
GASTEIGER

@<TRIPOS>ATOM
      1 SI          0.7157    5.4945   11.6967 Si      1  UNL1        0.0000
      2 SI          4.8841    6.3270    7.6630 Si      1  UNL1        0.0000
      3 N           2.2707    5.7251   10.9991 N.pl3   1  UNL1        0.0000
      4 N           4.1225    6.0822    9.2018 N.pl3   1  UNL1        0.0000
      5 C           3.1268    4.6576   10.8217 C.ar    1  UNL1        0.0000
      6 C           4.1324    4.8443    9.8292 C.ar    1  UNL1        0.0000
      7 C           5.0465    3.8236    9.5886 C.ar    1  UNL1        0.0000
      8 H           5.8149    3.9725    8.8461 H       1  UNL1        0.0000
      9 C           4.9941    2.6370   10.3041 C.ar    1  UNL1        0.0000
     10 H           5.7158    1.8590   10.1034 H       1  UNL1        0.0000
     11 C           4.0234    2.4568   11.2719 C.ar    1  UNL1        0.0000
     12 H           3.9803    1.5355   11.8346 H       1  UNL1        0.0000
     13 C           3.0981    3.4566   11.5264 C.ar    1  UNL1        0.0000
     14 H           2.3477    3.3106   12.2866 H       1  UNL1        0.0000
     15 C           0.7463    5.0138   13.5698 C.3     1  UNL1        0.0000
     16 H           1.7169    5.1909   14.0273 H       1  UNL1        0.0000
     17 H           0.5187    3.9593   13.6931 H       1  UNL1        0.0000
     18 H           0.0009    5.5622   14.1384 H       1  UNL1        0.0000
     19 C          -0.2339    4.0974   10.7875 C.3     1  UNL1        0.0000
     20 H          -0.4445    4.3683    9.7569 H       1  UNL1        0.0000
     21 H          -1.1808    3.8906   11.2758 H       1  UNL1        0.0000
     22 H           0.3373    3.1752   10.7691 H       1  UNL1        0.0000
     23 C          -0.3388    7.0727   11.4901 C.3     1  UNL1        0.0000
     24 H           0.2059    7.7873   10.8770 H       1  UNL1        0.0000
     25 H          -0.5636    7.5476   12.4387 H       1  UNL1        0.0000
     26 H          -1.2840    6.8464   11.0064 H       1  UNL1        0.0000
     27 C           3.9002    7.7565    6.8712 C.3     1  UNL1        0.0000
     28 H           2.8860    7.4431    6.6314 H       1  UNL1        0.0000
     29 H           4.3631    8.1176    5.9588 H       1  UNL1        0.0000
     30 H           3.8555    8.5813    7.5831 H       1  UNL1        0.0000
     31 C           6.7338    6.8137    7.8200 C.3     1  UNL1        0.0000
     32 H           7.3415    6.0092    8.2256 H       1  UNL1        0.0000
     33 H           6.8488    7.6769    8.4709 H       1  UNL1        0.0000
     34 H           7.1477    7.0755    6.8515 H       1  UNL1        0.0000
     35 C           4.7267    4.8157    6.4886 C.3     1  UNL1        0.0000
     36 H           5.6542    4.2576    6.4234 H       1  UNL1        0.0000
     37 H           4.4720    5.1319    5.4824 H       1  UNL1        0.0000
     38 H           3.9564    4.1293    6.8263 H       1  UNL1        0.0000
@<TRIPOS>BOND
     1    37    35    1
     2    29    27    1
     3    36    35    1
     4    35    38    1
     5    35     2    1
     6    28    27    1
     7    34    31    1
     8    27    30    1
     9    27     2    1
    10     2    31    1
    11     2     4    1
    12    31    32    1
    13    31    33    1
    14     8     7    1
    15     4     6    1
    16     7     6   ar
    17     7     9   ar
    18    20    19    1
    19     6     5   ar
    20    10     9    1
    21     9    11   ar
    22    22    19    1
    23    19    21    1
    24    19     1    1
    25     5     3    1
    26     5    13   ar
    27    24    23    1
    28     3     1    1
    29    26    23    1
    30    11    13   ar
    31    11    12    1
    32    23     1    1
    33    23    25    1
    34    13    14    1
    35     1    15    1
    36    15    17    1
    37    15    16    1
    38    15    18    1
