@<TRIPOS>MOLECULE
3,4
 38 38 0 0 0
SMALL
GASTEIGER

@<TRIPOS>ATOM
      1 SI          6.0053    4.6811   -1.5828 Si      1  UNL1        0.0000
      2 SI          3.2949    1.7225    2.9804 Si      1  UNL1        0.0000
      3 N           5.0997    4.1464   -0.1995 N.pl3   1  UNL1        0.0000
      4 N           3.9057    2.8546    1.8166 N.pl3   1  UNL1        0.0000
      5 C           4.2054    4.8779    0.5597 C.ar    1  UNL1        0.0000
      6 C           3.5557    4.1760    1.6427 C.ar    1  UNL1        0.0000
      7 C           2.5994    4.8571    2.3982 C.ar    1  UNL1        0.0000
      8 H           2.0918    4.3258    3.1878 H       1  UNL1        0.0000
      9 C           2.2934    6.1803    2.1391 C.ar    1  UNL1        0.0000
     10 H           1.5538    6.6844    2.7430 H       1  UNL1        0.0000
     11 C           2.9217    6.8546    1.1035 C.ar    1  UNL1        0.0000
     12 H           2.6745    7.8852    0.8986 H       1  UNL1        0.0000
     13 C           3.8577    6.2071    0.3179 C.ar    1  UNL1        0.0000
     14 H           4.3251    6.7229   -0.5070 H       1  UNL1        0.0000
     15 C           7.2812    3.2651   -1.7199 C.3     1  UNL1        0.0000
     16 H           7.9093    3.2344   -0.8247 H       1  UNL1        0.0000
     17 H           7.9294    3.3818   -2.5821 H       1  UNL1        0.0000
     18 H           6.7859    2.2993   -1.8086 H       1  UNL1        0.0000
     19 C           6.9426    6.3328   -1.3007 C.3     1  UNL1        0.0000
     20 H           6.4030    7.1833   -1.7068 H       1  UNL1        0.0000
     21 H           7.9147    6.3107   -1.7832 H       1  UNL1        0.0000
     22 H           7.1103    6.5205   -0.2423 H       1  UNL1        0.0000
     23 C           4.9073    4.8084   -3.1429 C.3     1  UNL1        0.0000
     24 H           4.4330    3.8595   -3.3747 H       1  UNL1        0.0000
     25 H           5.5019    5.0988   -4.0025 H       1  UNL1        0.0000
     26 H           4.1198    5.5462   -3.0217 H       1  UNL1        0.0000
     27 C           4.7322    0.4619    3.0144 C.3     1  UNL1        0.0000
     28 H           4.9130    0.0469    2.0235 H       1  UNL1        0.0000
     29 H           4.5326   -0.3678    3.6845 H       1  UNL1        0.0000
     30 H           5.6555    0.9503    3.3472 H       1  UNL1        0.0000
     31 C           3.0561    2.3698    4.7707 C.3     1  UNL1        0.0000
     32 H           3.7612    3.1601    5.0153 H       1  UNL1        0.0000
     33 H           3.2120    1.5656    5.4833 H       1  UNL1        0.0000
     34 H           2.0542    2.7541    4.9382 H       1  UNL1        0.0000
     35 C           1.6575    0.9449    2.3705 C.3     1  UNL1        0.0000
     36 H           0.8697    1.6878    2.2872 H       1  UNL1        0.0000
     37 H           1.3189    0.1817    3.0627 H       1  UNL1        0.0000
     38 H           1.7740    0.4803    1.3961 H       1  UNL1        0.0000
@<TRIPOS>BOND
     1    25    23    1
     2    24    23    1
     3    23    26    1
     4    23     1    1
     5    17    15    1
     6    18    15    1
     7    21    19    1
     8    15     1    1
     9    15    16    1
    10    20    19    1
    11     1    19    1
    12     1     3    1
    13    19    22    1
    14    14    13    1
    15     3     5    1
    16    13     5   ar
    17    13    11   ar
    18     5     6   ar
    19    12    11    1
    20    11     9   ar
    21    38    35    1
    22     6     4    1
    23     6     7   ar
    24     4     2    1
    25    28    27    1
    26     9     7   ar
    27     9    10    1
    28    36    35    1
    29    35     2    1
    30    35    37    1
    31     7     8    1
    32     2    27    1
    33     2    31    1
    34    27    30    1
    35    27    29    1
    36    31    34    1
    37    31    32    1
    38    31    33    1
