@<TRIPOS>MOLECULE
3,5
 38 38 0 0 0
SMALL
GASTEIGER

@<TRIPOS>ATOM
      1 SI          4.2333    2.0923    7.2419 Si      1  UNL1        0.0000
      2 SI          0.8991    2.8364   12.2260 Si      1  UNL1        0.0000
      3 N           3.1506    2.5040    8.5241 N.pl3   1  UNL1        0.0000
      4 C           2.1296    3.4429    8.4122 C.ar    1  UNL1        0.0000
      5 N           1.6222    2.8003   10.6530 N.pl3   1  UNL1        0.0000
      6 C           1.3164    3.6219    9.5782 C.ar    1  UNL1        0.0000
      7 C           5.6525    1.1567    8.1238 C.3     1  UNL1        0.0000
      8 H           5.3276    0.8699    9.1240 H       1  UNL1        0.0000
      9 H           6.5287    1.7868    8.2310 H       1  UNL1        0.0000
     10 H           5.9627    0.2698    7.5814 H       1  UNL1        0.0000
     11 C           0.8468    5.1667    7.3015 C.ar    1  UNL1        0.0000
     12 H           0.6572    5.7531    6.4146 H       1  UNL1        0.0000
     13 C           0.0831    5.3578    8.4379 C.ar    1  UNL1        0.0000
     14 H          -0.7033    6.0980    8.4487 H       1  UNL1        0.0000
     15 C           3.3382    0.9553    5.9621 C.3     1  UNL1        0.0000
     16 H           2.3062    0.8074    6.2791 H       1  UNL1        0.0000
     17 H           3.8050   -0.0221    5.8732 H       1  UNL1        0.0000
     18 H           3.3134    1.3922    4.9685 H       1  UNL1        0.0000
     19 C           1.8600    4.2199    7.2906 C.ar    1  UNL1        0.0000
     20 H           2.4412    4.0674    6.3955 H       1  UNL1        0.0000
     21 C           0.3174    4.5894    9.5681 C.ar    1  UNL1        0.0000
     22 H          -0.2875    4.7248   10.4520 H       1  UNL1        0.0000
     23 C          -0.9435    2.2773   12.2440 C.3     1  UNL1        0.0000
     24 H          -1.5054    2.6981   11.4140 H       1  UNL1        0.0000
     25 H          -1.4382    2.5794   13.1622 H       1  UNL1        0.0000
     26 H          -1.0125    1.1947   12.1759 H       1  UNL1        0.0000
     27 C           1.9577    1.5841   13.2066 C.3     1  UNL1        0.0000
     28 H           1.9307    0.6134   12.7079 H       1  UNL1        0.0000
     29 H           1.6023    1.4553   14.2240 H       1  UNL1        0.0000
     30 H           2.9965    1.9014   13.2544 H       1  UNL1        0.0000
     31 C           5.0486    3.5575    6.3100 C.3     1  UNL1        0.0000
     32 H           4.4951    3.8583    5.4263 H       1  UNL1        0.0000
     33 H           6.0457    3.2812    5.9828 H       1  UNL1        0.0000
     34 H           5.1420    4.4292    6.9503 H       1  UNL1        0.0000
     35 C           1.0245    4.5547   13.0645 C.3     1  UNL1        0.0000
     36 H           1.9689    5.0380   12.8352 H       1  UNL1        0.0000
     37 H           0.9576    4.4535   14.1422 H       1  UNL1        0.0000
     38 H           0.2310    5.2253   12.7530 H       1  UNL1        0.0000
@<TRIPOS>BOND
     1    18    15    1
     2    32    31    1
     3    17    15    1
     4    15    16    1
     5    15     1    1
     6    33    31    1
     7    31    34    1
     8    31     1    1
     9    20    19    1
    10    12    11    1
    11     1     7    1
    12     1     3    1
    13    19    11   ar
    14    19     4   ar
    15    11    13   ar
    16    10     7    1
    17     7     9    1
    18     7     8    1
    19     4     3    1
    20     4     6   ar
    21    13    14    1
    22    13    21   ar
    23    21     6   ar
    24    21    22    1
    25     6     5    1
    26     5     2    1
    27    24    23    1
    28    26    23    1
    29     2    23    1
    30     2    35    1
    31     2    27    1
    32    23    25    1
    33    28    27    1
    34    38    35    1
    35    36    35    1
    36    35    37    1
    37    27    30    1
    38    27    29    1
