@<TRIPOS>MOLECULE
3,8
 38 38 0 0 0
SMALL
GASTEIGER

@<TRIPOS>ATOM
      1 SI          0.6292    4.2692    9.6877 Si      1  UNL1        0.0000
      2 SI          5.8586    1.8231    9.8670 Si      1  UNL1        0.0000
      3 N           2.0791    3.7831   10.4873 N.pl3   1  UNL1        0.0000
      4 C           6.7776    2.9615    8.6354 C.3     1  UNL1        0.0000
      5 H           6.3949    2.8839    7.6222 H       1  UNL1        0.0000
      6 H           7.8279    2.6936    8.6048 H       1  UNL1        0.0000
      7 H           6.7152    3.9985    8.9470 H       1  UNL1        0.0000
      8 N           4.4620    2.6115   10.5081 N.pl3   1  UNL1        0.0000
      9 C          -0.5911    5.2428   10.8207 C.3     1  UNL1        0.0000
     10 H          -0.6175    4.8586   11.8375 H       1  UNL1        0.0000
     11 H          -1.5988    5.1778   10.4210 H       1  UNL1        0.0000
     12 H          -0.3363    6.2975   10.8728 H       1  UNL1        0.0000
     13 C           1.0700    1.8693   11.6659 C.ar    1  UNL1        0.0000
     14 H           0.1167    2.3735   11.7144 H       1  UNL1        0.0000
     15 C           2.4198   -0.0604   12.1041 C.ar    1  UNL1        0.0000
     16 H           2.5288   -1.0645   12.4870 H       1  UNL1        0.0000
     17 C           7.1717    1.3126   11.1783 C.3     1  UNL1        0.0000
     18 H           7.6686    2.1869   11.5885 H       1  UNL1        0.0000
     19 H           7.9363    0.6965   10.7147 H       1  UNL1        0.0000
     20 H           6.7542    0.7434   12.0040 H       1  UNL1        0.0000
     21 C           2.1479    2.5293   11.0813 C.ar    1  UNL1        0.0000
     22 C          -0.3256    2.7469    9.0056 C.3     1  UNL1        0.0000
     23 H          -0.6803    2.9315    7.9970 H       1  UNL1        0.0000
     24 H          -1.1934    2.5186    9.6138 H       1  UNL1        0.0000
     25 H           0.2924    1.8546    8.9836 H       1  UNL1        0.0000
     26 C           3.4151    1.8789   11.0463 C.ar    1  UNL1        0.0000
     27 C           1.2032    0.5898   12.1835 C.ar    1  UNL1        0.0000
     28 H           0.3512    0.1045   12.6366 H       1  UNL1        0.0000
     29 C           3.5128    0.5799   11.5382 C.ar    1  UNL1        0.0000
     30 H           4.4650    0.0754   11.4926 H       1  UNL1        0.0000
     31 C           5.3640    0.2467    8.8764 C.3     1  UNL1        0.0000
     32 H           5.7982   -0.6449    9.3156 H       1  UNL1        0.0000
     33 H           5.7096    0.2981    7.8487 H       1  UNL1        0.0000
     34 H           4.2880    0.1040    8.8587 H       1  UNL1        0.0000
     35 C           0.9153    5.3549    8.1332 C.3     1  UNL1        0.0000
     36 H           1.6576    6.1267    8.3071 H       1  UNL1        0.0000
     37 H          -0.0163    5.8470    7.8716 H       1  UNL1        0.0000
     38 H           1.2277    4.7728    7.2703 H       1  UNL1        0.0000
@<TRIPOS>BOND
     1    38    35    1
     2     5     4    1
     3    33    31    1
     4    37    35    1
     5    23    22    1
     6    35    36    1
     7    35     1    1
     8     6     4    1
     9     4     7    1
    10     4     2    1
    11    34    31    1
    12    31    32    1
    13    31     2    1
    14    25    22    1
    15    22    24    1
    16    22     1    1
    17     1     3    1
    18     1     9    1
    19     2     8    1
    20     2    17    1
    21    11     9    1
    22     3    21    1
    23     8    26    1
    24    19    17    1
    25     9    12    1
    26     9    10    1
    27    26    21   ar
    28    26    29   ar
    29    21    13   ar
    30    17    18    1
    31    17    20    1
    32    30    29    1
    33    29    15   ar
    34    13    14    1
    35    13    27   ar
    36    15    27   ar
    37    15    16    1
    38    27    28    1
