@<TRIPOS>MOLECULE
1,2
 42 42 0 0 0
SMALL
GASTEIGER

@<TRIPOS>ATOM
      1 N           4.7692    2.9910   -0.0924 N.3     1  UNL1       -0.1963
      2 N           5.9519    1.3227    0.8065 N.3     1  UNL1       -0.1963
      3 C           5.8017    2.1607   -0.2171 C.3     1  UNL1        0.2118
      4 C           6.6840    2.1816   -1.3399 C.1     1  UNL1       -0.0515
      5 C           7.4499    2.2200   -2.2750 C.1     1  UNL1       -0.0629
      6 C           8.3379    2.2535   -3.3727 C.ar    1  UNL1        0.0250
      7 C           8.9367    3.4548   -3.7553 C.ar    1  UNL1       -0.0463
      8 H           8.7165    4.3583   -3.2048 H       1  UNL1        0.0630
      9 C           9.8066    3.4804   -4.8277 C.ar    1  UNL1       -0.0606
     10 H          10.2695    4.4116   -5.1198 H       1  UNL1        0.0618
     11 C          10.0854    2.3178   -5.5289 C.ar    1  UNL1       -0.0617
     12 H          10.7651    2.3429   -6.3676 H       1  UNL1        0.0618
     13 C           9.4915    1.1232   -5.1533 C.ar    1  UNL1       -0.0606
     14 H           9.7080    0.2170   -5.6998 H       1  UNL1        0.0618
     15 C           8.6227    1.0846   -4.0804 C.ar    1  UNL1       -0.0463
     16 H           8.1564    0.1561   -3.7839 H       1  UNL1        0.0630
     17 C           7.0114    0.3232    0.9072 C.3     1  UNL1        0.0313
     18 C           6.9643   -0.6770   -0.2596 C.3     1  UNL1       -0.0457
     19 H           5.9544   -1.0690   -0.3672 H       1  UNL1        0.0248
     20 H           7.6413   -1.5056   -0.0662 H       1  UNL1        0.0248
     21 H           7.2525   -0.2031   -1.1928 H       1  UNL1        0.0248
     22 C           8.3970    0.9832    0.9945 C.3     1  UNL1       -0.0457
     23 H           8.6158    1.5480    0.0921 H       1  UNL1        0.0248
     24 H           9.1643    0.2238    1.1241 H       1  UNL1        0.0248
     25 H           8.4305    1.6596    1.8468 H       1  UNL1        0.0248
     26 C           6.7539   -0.4494    2.2114 C.3     1  UNL1       -0.0457
     27 H           6.7307    0.2299    3.0639 H       1  UNL1        0.0248
     28 H           7.5419   -1.1816    2.3751 H       1  UNL1        0.0248
     29 H           5.8006   -0.9727    2.1536 H       1  UNL1        0.0248
     30 C           4.3600    3.9575   -1.1058 C.3     1  UNL1        0.0313
     31 C           4.0150    3.2744   -2.4378 C.3     1  UNL1       -0.0457
     32 H           4.8894    2.7985   -2.8725 H       1  UNL1        0.0248
     33 H           3.6327    4.0077   -3.1441 H       1  UNL1        0.0248
     34 H           3.2529    2.5172   -2.2716 H       1  UNL1        0.0248
     35 C           5.4306    5.0397   -1.3204 C.3     1  UNL1       -0.0457
     36 H           5.7084    5.4795   -0.3637 H       1  UNL1        0.0248
     37 H           5.0435    5.8235   -1.9672 H       1  UNL1        0.0248
     38 H           6.3202    4.6178   -1.7790 H       1  UNL1        0.0248
     39 C           3.0860    4.6214   -0.5609 C.3     1  UNL1       -0.0457
     40 H           2.3512    3.8561   -0.3089 H       1  UNL1        0.0248
     41 H           2.6574    5.2902   -1.3045 H       1  UNL1        0.0248
     42 H           3.3149    5.1965    0.3349 H       1  UNL1        0.0248
@<TRIPOS>BOND
     1    12    11    1
     2    14    13    1
     3    11    13   ar
     4    11     9   ar
     5    13    15   ar
     6    10     9    1
     7     9     7   ar
     8    15    16    1
     9    15     6   ar
    10     7     6   ar
    11     7     8    1
    12     6     5    1
    13    33    31    1
    14    32    31    1
    15    31    34    1
    16    31    30    1
    17     5     4    3
    18    37    35    1
    19    38    35    1
    20     4     3    1
    21    35    30    1
    22    35    36    1
    23    41    39    1
    24    21    18    1
    25    30    39    1
    26    30     1    1
    27    39    40    1
    28    39    42    1
    29    19    18    1
    30    18    20    1
    31    18    17    1
    32     3     1    1
    33     3     2    1
    34    23    22    1
    35     2    17    1
    36    17    22    1
    37    17    26    1
    38    22    24    1
    39    22    25    1
    40    29    26    1
    41    26    28    1
    42    26    27    1
