@<TRIPOS>MOLECULE
2,3
 23 22 0 0 0
SMALL
GASTEIGER

@<TRIPOS>ATOM
      1 SI          6.7487    1.9699    6.2025 Si      1  UNL1        0.0000
      2 N           5.6464    3.1412    5.6234 N.3     1  UNL1        0.0000
      3 N           5.9295    4.4680    5.1521 N.3     1  UNL1        0.0000
      4 C           6.2947    4.4331    3.7380 C.3     1  UNL1        0.0000
      5 H           7.2458    3.9073    3.5816 H       1  UNL1        0.0000
      6 H           6.3794    5.4507    3.3553 H       1  UNL1        0.0000
      7 H           5.5069    3.9105    3.1970 H       1  UNL1        0.0000
      8 C           6.9703    5.1345    5.9298 C.3     1  UNL1        0.0000
      9 H           7.9392    4.6252    5.8234 H       1  UNL1        0.0000
     10 H           6.6678    5.1356    6.9802 H       1  UNL1        0.0000
     11 H           7.0766    6.1657    5.5885 H       1  UNL1        0.0000
     12 C           5.6507    0.4044    6.3085 C.3     1  UNL1        0.0000
     13 H           4.6592    0.6659    6.6763 H       1  UNL1        0.0000
     14 H           6.0781   -0.3136    6.9993 H       1  UNL1        0.0000
     15 H           5.5445   -0.0935    5.3495 H       1  UNL1        0.0000
     16 C           8.2375    1.5683    5.0499 C.3     1  UNL1        0.0000
     17 H           8.9677    2.3718    5.0276 H       1  UNL1        0.0000
     18 H           7.9159    1.3847    4.0296 H       1  UNL1        0.0000
     19 H           8.7508    0.6772    5.3945 H       1  UNL1        0.0000
     20 C           7.4981    2.2752    7.9518 C.3     1  UNL1        0.0000
     21 H           8.1585    3.1376    7.9919 H       1  UNL1        0.0000
     22 H           8.0717    1.4160    8.2868 H       1  UNL1        0.0000
     23 H           6.7004    2.4313    8.6754 H       1  UNL1        0.0000
@<TRIPOS>BOND
     1     7     4    1
     2     6     4    1
     3     5     4    1
     4     4     3    1
     5    18    16    1
     6    17    16    1
     7    16    19    1
     8    16     1    1
     9     3     2    1
    10     3     8    1
    11    15    12    1
    12    11     8    1
    13     2     1    1
    14     9     8    1
    15     8    10    1
    16     1    12    1
    17     1    20    1
    18    12    13    1
    19    12    14    1
    20    20    21    1
    21    20    22    1
    22    20    23    1
