@<TRIPOS>MOLECULE
2,3
 23 22 0 0 0
SMALL
GASTEIGER

@<TRIPOS>ATOM
      1 SI          1.0067    2.2454    6.0238 Si      1  UNL1        0.0000
      2 N           2.2412    3.3187    5.5271 N.3     1  UNL1        0.0000
      3 N           2.9498    3.3368    4.2779 N.3     1  UNL1        0.0000
      4 C           2.1954    4.0934    3.2814 C.3     1  UNL1        0.0000
      5 H           1.2522    3.5928    3.0265 H       1  UNL1        0.0000
      6 H           2.7953    4.2109    2.3784 H       1  UNL1        0.0000
      7 H           1.9753    5.0761    3.6963 H       1  UNL1        0.0000
      8 C           3.2506    1.9978    3.7786 C.3     1  UNL1        0.0000
      9 H           2.3322    1.4467    3.5292 H       1  UNL1        0.0000
     10 H           3.8058    1.4590    4.5507 H       1  UNL1        0.0000
     11 H           3.8690    2.0735    2.8824 H       1  UNL1        0.0000
     12 C           0.3775    3.0734    7.6319 C.3     1  UNL1        0.0000
     13 H           1.2159    3.4747    8.1999 H       1  UNL1        0.0000
     14 H          -0.1276    2.3484    8.2601 H       1  UNL1        0.0000
     15 H          -0.3256    3.8775    7.4370 H       1  UNL1        0.0000
     16 C           1.5467    0.4489    6.4670 C.3     1  UNL1        0.0000
     17 H           2.3425    0.4727    7.2088 H       1  UNL1        0.0000
     18 H           1.9058   -0.1155    5.6103 H       1  UNL1        0.0000
     19 H           0.7225   -0.1118    6.8979 H       1  UNL1        0.0000
     20 C          -0.4912    2.0700    4.8273 C.3     1  UNL1        0.0000
     21 H          -0.8659    3.0381    4.5101 H       1  UNL1        0.0000
     22 H          -1.3068    1.5507    5.3188 H       1  UNL1        0.0000
     23 H          -0.2401    1.5034    3.9356 H       1  UNL1        0.0000
@<TRIPOS>BOND
     1     6     4    1
     2    11     8    1
     3     5     4    1
     4     4     7    1
     5     4     3    1
     6     9     8    1
     7     8     3    1
     8     8    10    1
     9    23    20    1
    10     3     2    1
    11    21    20    1
    12    20    22    1
    13    20     1    1
    14     2     1    1
    15    18    16    1
    16     1    16    1
    17     1    12    1
    18    16    19    1
    19    16    17    1
    20    15    12    1
    21    12    13    1
    22    12    14    1
