@<TRIPOS>MOLECULE
2,3
 23 22 0 0 0
SMALL
GASTEIGER

@<TRIPOS>ATOM
      1 SI         10.4432    1.2071    4.9048 Si      1  UNL1        0.0000
      2 N          11.6074    0.4984    3.8374 N.3     1  UNL1        0.0000
      3 N          12.2841    1.1589    2.7774 N.3     1  UNL1        0.0000
      4 C          10.6513    0.2406    6.5366 C.3     1  UNL1        0.0000
      5 H          10.9623   -0.7738    6.3039 H       1  UNL1        0.0000
      6 H           9.7224    0.2005    7.0946 H       1  UNL1        0.0000
      7 H          11.4015    0.6851    7.1824 H       1  UNL1        0.0000
      8 C          10.6315    3.0730    5.3132 C.3     1  UNL1        0.0000
      9 H          11.5962    3.2967    5.7576 H       1  UNL1        0.0000
     10 H           9.8701    3.3565    6.0326 H       1  UNL1        0.0000
     11 H          10.5062    3.7123    4.4448 H       1  UNL1        0.0000
     12 C          11.3772    1.8513    1.8746 C.3     1  UNL1        0.0000
     13 H          10.5888    1.1593    1.5790 H       1  UNL1        0.0000
     14 H          11.9294    2.1694    0.9882 H       1  UNL1        0.0000
     15 H          10.9177    2.7316    2.3424 H       1  UNL1        0.0000
     16 C          13.3215    2.0543    3.2713 C.3     1  UNL1        0.0000
     17 H          12.9051    2.9560    3.7354 H       1  UNL1        0.0000
     18 H          13.9650    2.3495    2.4398 H       1  UNL1        0.0000
     19 H          13.9149    1.5213    4.0137 H       1  UNL1        0.0000
     20 C           8.6766    0.9426    4.1942 C.3     1  UNL1        0.0000
     21 H           8.4212    1.6726    3.4307 H       1  UNL1        0.0000
     22 H           7.9185    1.0062    4.9683 H       1  UNL1        0.0000
     23 H           8.6175   -0.0468    3.7458 H       1  UNL1        0.0000
@<TRIPOS>BOND
     1    14    12    1
     2    13    12    1
     3    12    15    1
     4    12     3    1
     5    18    16    1
     6     3    16    1
     7     3     2    1
     8    16    17    1
     9    16    19    1
    10    21    20    1
    11    23    20    1
    12     2     1    1
    13    20     1    1
    14    20    22    1
    15    11     8    1
    16     1     8    1
    17     1     4    1
    18     8     9    1
    19     8    10    1
    20     5     4    1
    21     4     6    1
    22     4     7    1
