@<TRIPOS>MOLECULE
2,3
 23 22 0 0 0
SMALL
GASTEIGER

@<TRIPOS>ATOM
      1 SI          3.9994    6.3392    8.7291 Si      1  UNL1        0.0000
      2 N           4.0314    5.7394    7.1285 N.3     1  UNL1        0.0000
      3 N           3.2140    6.1373    6.0165 N.3     1  UNL1        0.0000
      4 C           1.8294    6.4016    6.3981 C.3     1  UNL1        0.0000
      5 H           1.7577    7.2649    7.0757 H       1  UNL1        0.0000
      6 H           1.4323    5.5111    6.8922 H       1  UNL1        0.0000
      7 H           1.2380    6.6069    5.5041 H       1  UNL1        0.0000
      8 C           2.5052    5.8071    9.8242 C.3     1  UNL1        0.0000
      9 H           1.5575    6.2204    9.4888 H       1  UNL1        0.0000
     10 H           2.6450    6.1199   10.8547 H       1  UNL1        0.0000
     11 H           2.4146    4.7227    9.8268 H       1  UNL1        0.0000
     12 C           5.5765    5.5565    9.4823 C.3     1  UNL1        0.0000
     13 H           6.4752    6.1129    9.2343 H       1  UNL1        0.0000
     14 H           5.6927    4.5328    9.1284 H       1  UNL1        0.0000
     15 H           5.5053    5.5237   10.5636 H       1  UNL1        0.0000
     16 C           3.7923    7.3068    5.3592 C.3     1  UNL1        0.0000
     17 H           3.7636    8.1894    6.0116 H       1  UNL1        0.0000
     18 H           3.2443    7.5206    4.4409 H       1  UNL1        0.0000
     19 H           4.8290    7.0802    5.1140 H       1  UNL1        0.0000
     20 C           4.1427    8.2496    8.9177 C.3     1  UNL1        0.0000
     21 H           3.2335    8.7613    8.6164 H       1  UNL1        0.0000
     22 H           4.9597    8.6502    8.3258 H       1  UNL1        0.0000
     23 H           4.3315    8.5127    9.9528 H       1  UNL1        0.0000
@<TRIPOS>BOND
     1    18    16    1
     2    19    16    1
     3    16    17    1
     4    16     3    1
     5     7     4    1
     6     3     4    1
     7     3     2    1
     8     4     6    1
     9     4     5    1
    10     2     1    1
    11    22    20    1
    12    21    20    1
    13     1    20    1
    14     1    12    1
    15     1     8    1
    16    20    23    1
    17    14    12    1
    18    13    12    1
    19    12    15    1
    20     9     8    1
    21     8    11    1
    22     8    10    1
