@<TRIPOS>MOLECULE
1,2
 20 21 0 0 0
SMALL
GASTEIGER

@<TRIPOS>ATOM
      1 N           2.6386   11.7063   12.2065 N.pl3   1  UNL1       -0.2427
      2 N           0.6834   10.7572   10.7782 N.pl3   1  UNL1       -0.2387
      3 C           3.5130   12.2202   13.0741 C.3     1  UNL1        0.0844
      4 H           3.7279   11.6038   13.9375 H       1  UNL1        0.0584
      5 C           4.1327   13.4363   12.9033 C.2     1  UNL1       -0.0600
      6 H           4.8296   13.8000   13.6387 H       1  UNL1        0.0592
      7 C           3.8706   14.1606   11.7361 C.2     1  UNL1       -0.0623
      8 H           4.3789   15.0922   11.5428 H       1  UNL1        0.0616
      9 C           2.9479   13.6671   10.8483 C.2     1  UNL1       -0.0408
     10 H           2.7172   14.2144    9.9487 H       1  UNL1        0.0634
     11 C           2.3059   12.4450   11.1094 C.2     1  UNL1        0.0578
     12 C           1.2258   11.9166   10.3148 C.3     1  UNL1        0.1419
     13 C           0.6899   12.5586    9.1856 C.2     1  UNL1       -0.0507
     14 H           1.1373   13.4673    8.8174 H       1  UNL1        0.0598
     15 C          -0.4023   12.0227    8.5471 C.2     1  UNL1       -0.0620
     16 H          -0.8232   12.5028    7.6772 H       1  UNL1        0.0616
     17 C          -0.9609   10.8406    9.0496 C.2     1  UNL1       -0.0466
     18 H          -1.8184   10.3859    8.5812 H       1  UNL1        0.0630
     19 C          -0.3855   10.2596   10.1559 C.2     1  UNL1        0.0129
     20 H          -0.7841    9.3420   10.5720 H       1  UNL1        0.0798
@<TRIPOS>BOND
     1    16    15    1
     2    15    17    1
     3    15    13    2
     4    18    17    1
     5    14    13    1
     6    17    19    2
     7    13    12    1
     8    10     9    1
     9    19    20    1
    10    19     2    1
    11    12     2    1
    12    12    11    1
    13     9    11    2
    14     9     7    1
    15    11     1    1
    16     8     7    1
    17     7     5    2
    18     1     3    1
    19     5     3    1
    20     5     6    1
    21     3     4    1
