@<TRIPOS>MOLECULE
1,2
 20 21 0 0 0
SMALL
GASTEIGER

@<TRIPOS>ATOM
      1 N          12.2968    8.5109   12.1913 N.pl3   1  UNL1       -0.2427
      2 N          13.3233   10.9583   12.1335 N.pl3   1  UNL1       -0.2387
      3 C          11.8023    7.2852   12.0198 C.3     1  UNL1        0.0844
      4 H          12.5440    6.5004   11.9461 H       1  UNL1        0.0584
      5 C          10.4507    7.0170   11.9497 C.2     1  UNL1       -0.0600
      6 H          10.1049    6.0066   11.8063 H       1  UNL1        0.0592
      7 C           9.5494    8.0766   12.0717 C.2     1  UNL1       -0.0623
      8 H           8.4853    7.9037   12.0215 H       1  UNL1        0.0616
      9 C          10.0467    9.3462   12.2530 C.2     1  UNL1       -0.0408
     10 H           9.3806   10.1894   12.3329 H       1  UNL1        0.0634
     11 C          11.4318    9.5483   12.3079 C.2     1  UNL1        0.0578
     12 C          12.0262   10.8591   12.4852 C.3     1  UNL1        0.1419
     13 C          11.3354   11.9538   13.0178 C.2     1  UNL1       -0.0507
     14 H          10.3149   11.8452   13.3460 H       1  UNL1        0.0598
     15 C          11.9844   13.1620   13.1497 C.2     1  UNL1       -0.0620
     16 H          11.4686   14.0188   13.5553 H       1  UNL1        0.0616
     17 C          13.3196   13.2558   12.7582 C.2     1  UNL1       -0.0466
     18 H          13.8620   14.1845   12.8333 H       1  UNL1        0.0630
     19 C          13.9400   12.1228   12.2708 C.2     1  UNL1        0.0129
     20 H          14.9807   12.1408   11.9717 H       1  UNL1        0.0798
@<TRIPOS>BOND
     1     6     5    1
     2     4     3    1
     3     5     3    1
     4     5     7    2
     5    20    19    1
     6     3     1    1
     7     8     7    1
     8     7     9    1
     9     2    19    1
    10     2    12    1
    11     1    11    1
    12     9    11    2
    13     9    10    1
    14    19    17    2
    15    11    12    1
    16    12    13    1
    17    17    18    1
    18    17    15    1
    19    13    15    2
    20    13    14    1
    21    15    16    1
