@<TRIPOS>MOLECULE
1,2
 26 27 0 0 0
SMALL
GASTEIGER

@<TRIPOS>ATOM
      1 N           2.7249    8.7519    2.7601 N.pl3   1  UNL1       -0.2427
      2 N           4.7008    7.8728    4.1979 N.pl3   1  UNL1       -0.2387
      3 C           1.6536    9.2192    2.1206 C.3     1  UNL1        0.0847
      4 H           1.2281   10.1311    2.5224 H       1  UNL1        0.0584
      5 C           1.1065    8.6173    1.0126 C.2     1  UNL1       -0.0571
      6 H           0.2454    9.0525    0.5309 H       1  UNL1        0.0594
      7 C           1.6922    7.4444    0.5075 C.2     1  UNL1       -0.0509
      8 C           2.7893    6.9455    1.1788 C.2     1  UNL1       -0.0379
      9 H           3.2682    6.0490    0.8187 H       1  UNL1        0.0637
     10 C           3.2935    7.6022    2.3112 C.2     1  UNL1        0.0581
     11 C           4.3724    7.0981    3.1283 C.3     1  UNL1        0.1422
     12 C           5.0016    5.8621    2.9170 C.2     1  UNL1       -0.0478
     13 H           4.7612    5.2818    2.0402 H       1  UNL1        0.0601
     14 C           5.9208    5.3770    3.8206 C.2     1  UNL1       -0.0506
     15 C           6.1798    6.1592    4.9578 C.2     1  UNL1       -0.0437
     16 H           6.8730    5.8170    5.7079 H       1  UNL1        0.0633
     17 C           5.5701    7.3824    5.0851 C.2     1  UNL1        0.0132
     18 H           5.7868    8.0266    5.9274 H       1  UNL1        0.0798
     19 C           1.1292    6.7604   -0.6957 C.3     1  UNL1       -0.0399
     20 H           1.8946    6.1811   -1.2070 H       1  UNL1        0.0277
     21 H           0.7068    7.4861   -1.3874 H       1  UNL1        0.0277
     22 H           0.3300    6.0804   -0.3967 H       1  UNL1        0.0277
     23 C           6.6067    4.0655    3.6336 C.3     1  UNL1       -0.0399
     24 H           6.3184    3.3808    4.4302 H       1  UNL1        0.0277
     25 H           7.6851    4.2006    3.6862 H       1  UNL1        0.0277
     26 H           6.3515    3.6191    2.6764 H       1  UNL1        0.0277
@<TRIPOS>BOND
     1    21    19    1
     2    20    19    1
     3    19    22    1
     4    19     7    1
     5     7     5    2
     6     7     8    1
     7     6     5    1
     8     9     8    1
     9     5     3    1
    10     8    10    2
    11    13    12    1
    12     3     4    1
    13     3     1    1
    14    10     1    1
    15    10    11    1
    16    26    23    1
    17    12    11    1
    18    12    14    2
    19    11     2    1
    20    23    25    1
    21    23    14    1
    22    23    24    1
    23    14    15    1
    24     2    17    1
    25    15    17    2
    26    15    16    1
    27    17    18    1
