@<TRIPOS>MOLECULE
1,4
 18 19 0 0 0
SMALL
GASTEIGER

@<TRIPOS>ATOM
      1 N           4.6037    5.2760    8.5605 N.pl3   1  UNL1       -0.0367
      2 N           5.4596    7.3238    7.6637 N.2     1  UNL1       -0.0467
      3 N           2.8608    8.2060    7.3923 N.2     1  UNL1       -0.2486
      4 N           2.1308    6.1241    8.3180 N.pl3   1  UNL1       -0.2139
      5 C           5.8389    4.7751    8.5261 C.3     1  UNL1        0.2016
      6 H           5.9487    3.7616    8.8949 H       1  UNL1        0.0899
      7 C           6.9188    5.4991    8.0718 C.2     1  UNL1        0.0099
      8 H           7.9077    5.0769    8.0486 H       1  UNL1        0.0652
      9 C           6.6666    6.8254    7.6849 C.2     1  UNL1        0.1409
     10 H           7.4618    7.4893    7.3746 H       1  UNL1        0.1125
     11 C           4.4497    6.5493    8.0663 C.2     1  UNL1        0.3798
     12 C           3.1026    7.0087    7.9337 C.3     1  UNL1        0.3046
     13 C           1.6159    8.5614    7.2168 C.2     1  UNL1        0.0267
     14 H           1.4550    9.5383    6.7816 H       1  UNL1        0.0826
     15 C           0.5433    7.7204    7.5655 C.2     1  UNL1       -0.0285
     16 H          -0.4822    8.0116    7.4143 H       1  UNL1        0.0645
     17 C           0.8685    6.4997    8.1146 C.2     1  UNL1        0.0163
     18 H           0.1076    5.7854    8.4106 H       1  UNL1        0.0799
@<TRIPOS>BOND
     1    14    13    1
     2    13     3    2
     3    13    15    1
     4    10     9    1
     5     3    12    1
     6    16    15    1
     7    15    17    2
     8     2     9    1
     9     2    11    2
    10     9     7    2
    11    12    11    1
    12    12     4    1
    13     8     7    1
    14    11     1    1
    15     7     5    1
    16    17     4    1
    17    17    18    1
    18     5     1    1
    19     5     6    1
