@<TRIPOS>MOLECULE
1,2
 77 79 0 0 0
SMALL
GASTEIGER

@<TRIPOS>ATOM
      1 N           7.0512    7.3999   11.7583 N.pl3   1  UNL1       -0.2148
      2 N           6.0766    7.3949   13.8062 N.pl3   1  UNL1       -0.2148
      3 C           7.8276    6.7596   10.7617 C.ar    1  UNL1        0.0576
      4 C           7.3531    5.5854   10.1537 C.ar    1  UNL1       -0.0219
      5 C           8.1475    4.9572    9.2051 C.ar    1  UNL1       -0.0565
      6 C           9.3765    5.4770    8.8459 C.ar    1  UNL1       -0.0611
      7 C           9.8198    6.6555    9.4170 C.ar    1  UNL1       -0.0565
      8 C           9.0561    7.3150   10.3688 C.ar    1  UNL1       -0.0219
      9 C           5.9971    5.0115   10.5024 C.3     1  UNL1       -0.0197
     10 C           5.1521    4.8008    9.2424 C.3     1  UNL1       -0.0586
     11 C           6.1403    3.6969   11.2734 C.3     1  UNL1       -0.0586
     12 C           9.5415    8.5965   11.0082 C.3     1  UNL1       -0.0197
     13 C          10.2421    9.5253   10.0150 C.3     1  UNL1       -0.0586
     14 C          10.4845    8.2653   12.1695 C.3     1  UNL1       -0.0586
     15 C           7.0337    6.8678   12.9885 C.3     1  UNL1        0.1982
     16 C           7.9093    5.8565   13.4479 C.2     1  UNL1       -0.0356
     17 C           7.7611    5.3807   14.7235 C.2     1  UNL1       -0.0601
     18 C           6.7482    5.8915   15.5340 C.2     1  UNL1       -0.0386
     19 C           5.9305    6.8967   15.0441 C.2     1  UNL1        0.0584
     20 C           4.8153    7.3802   15.8981 C.ar    1  UNL1        0.0045
     21 C           5.0849    8.0852   17.0787 C.ar    1  UNL1       -0.0353
     22 C           4.0378    8.4018   17.9328 C.ar    1  UNL1       -0.0543
     23 C           2.7343    8.0194   17.6596 C.ar    1  UNL1       -0.0442
     24 C           2.4859    7.3340   16.4787 C.ar    1  UNL1       -0.0543
     25 C           3.4980    7.0138   15.5848 C.ar    1  UNL1       -0.0353
     26 C           6.4939    8.4813   17.4680 C.3     1  UNL1       -0.0209
     27 C           6.6115    9.9755   17.7871 C.3     1  UNL1       -0.0586
     28 C           6.9528    7.6680   18.6822 C.3     1  UNL1       -0.0586
     29 C           1.6157    8.2903   18.6352 C.3     1  UNL1       -0.0215
     30 C           1.4444    9.7856   18.9091 C.3     1  UNL1       -0.0586
     31 C           1.8652    7.5292   19.9398 C.3     1  UNL1       -0.0586
     32 C           3.1949    6.1940   14.3467 C.3     1  UNL1       -0.0209
     33 C           3.4566    4.7137   14.6470 C.3     1  UNL1       -0.0586
     34 C           1.7659    6.3668   13.8285 C.3     1  UNL1       -0.0586
     35 H           7.8071    4.0430    8.7448 H       1  UNL1        0.0621
     36 H           9.9877    4.9670    8.1175 H       1  UNL1        0.0618
     37 H          10.7766    7.0572    9.1234 H       1  UNL1        0.0621
     38 H           5.4651    5.7307   11.1462 H       1  UNL1        0.0344
     39 H           5.1195    5.7105    8.6452 H       1  UNL1        0.0235
     40 H           4.1358    4.5275    9.5175 H       1  UNL1        0.0235
     41 H           5.5590    4.0030    8.6275 H       1  UNL1        0.0235
     42 H           6.6867    2.9654   10.6834 H       1  UNL1        0.0235
     43 H           5.1590    3.2889   11.5045 H       1  UNL1        0.0235
     44 H           6.6753    3.8564   12.2067 H       1  UNL1        0.0235
     45 H           8.6576    9.1185   11.4004 H       1  UNL1        0.0344
     46 H          11.2210    9.1412    9.7410 H       1  UNL1        0.0235
     47 H          10.3879   10.5073   10.4622 H       1  UNL1        0.0235
     48 H           9.6529    9.6400    9.1078 H       1  UNL1        0.0235
     49 H           9.9785    7.6619   12.9206 H       1  UNL1        0.0235
     50 H          10.8518    9.1751   12.6409 H       1  UNL1        0.0235
     51 H          11.3402    7.7019   11.8039 H       1  UNL1        0.0235
     52 H           8.6668    5.4770   12.7803 H       1  UNL1        0.0612
     53 H           8.4124    4.6043   15.0958 H       1  UNL1        0.0616
     54 H           6.5836    5.5013   16.5242 H       1  UNL1        0.0637
     55 H           4.2504    8.9306   18.8483 H       1  UNL1        0.0623
     56 H           1.4743    7.0209   16.2722 H       1  UNL1        0.0623
     57 H           7.1644    8.2558   16.6312 H       1  UNL1        0.0344
     58 H           6.2274   10.5902   16.9753 H       1  UNL1        0.0235
     59 H           7.6554   10.2332   17.9527 H       1  UNL1        0.0235
     60 H           6.0610   10.2266   18.6894 H       1  UNL1        0.0235
     61 H           6.3266    7.8805   19.5449 H       1  UNL1        0.0235
     62 H           7.9808    7.9179   18.9336 H       1  UNL1        0.0235
     63 H           6.8985    6.6021   18.4798 H       1  UNL1        0.0235
     64 H           0.6831    7.9176   18.1978 H       1  UNL1        0.0343
     65 H           2.3475   10.2107   19.3401 H       1  UNL1        0.0235
     66 H           0.6299    9.9408   19.6122 H       1  UNL1        0.0235
     67 H           1.2098   10.3205   17.9912 H       1  UNL1        0.0235
     68 H           1.9952    6.4678   19.7413 H       1  UNL1        0.0235
     69 H           1.0213    7.6537   20.6138 H       1  UNL1        0.0235
     70 H           2.7584    7.8968   20.4383 H       1  UNL1        0.0235
     71 H           3.8773    6.5109   13.5422 H       1  UNL1        0.0344
     72 H           4.4969    4.5512   14.9179 H       1  UNL1        0.0235
     73 H           3.2290    4.1069   13.7737 H       1  UNL1        0.0235
     74 H           2.8297    4.3823   15.4720 H       1  UNL1        0.0235
     75 H           1.0470    5.8835   14.4854 H       1  UNL1        0.0235
     76 H           1.6761    5.9012   12.8491 H       1  UNL1        0.0235
     77 H           1.5048    7.4194   13.7357 H       1  UNL1        0.0235
@<TRIPOS>BOND
     1    36     6    1
     2    41    10    1
     3    39    10    1
     4    35     5    1
     5     6     5   ar
     6     6     7   ar
     7    48    13    1
     8    37     7    1
     9     5     4   ar
    10    10    40    1
    11    10     9    1
    12     7     8   ar
    13    46    13    1
    14    13    47    1
    15    13    12    1
    16     4     9    1
    17     4     3   ar
    18     8     3   ar
    19     8    12    1
    20     9    38    1
    21     9    11    1
    22    42    11    1
    23     3     1    1
    24    12    45    1
    25    12    14    1
    26    11    43    1
    27    11    44    1
    28     1    15    1
    29    51    14    1
    30    14    50    1
    31    14    49    1
    32    52    16    1
    33    76    34    1
    34    15    16    1
    35    15     2    1
    36    16    17    2
    37    71    32    1
    38    77    34    1
    39    73    33    1
    40     2    19    1
    41    34    32    1
    42    34    75    1
    43    32    33    1
    44    32    25    1
    45    33    72    1
    46    33    74    1
    47    17    53    1
    48    17    18    1
    49    19    18    2
    50    19    20    1
    51    18    54    1
    52    25    20   ar
    53    25    24   ar
    54    20    21   ar
    55    56    24    1
    56    24    23   ar
    57    57    26    1
    58    58    27    1
    59    21    26    1
    60    21    22   ar
    61    26    27    1
    62    26    28    1
    63    23    22   ar
    64    23    29    1
    65    27    59    1
    66    27    60    1
    67    22    55    1
    68    67    30    1
    69    64    29    1
    70    63    28    1
    71    29    30    1
    72    29    31    1
    73    28    62    1
    74    28    61    1
    75    30    65    1
    76    30    66    1
    77    68    31    1
    78    31    70    1
    79    31    69    1
