@<TRIPOS>MOLECULE
2,3
 51 54 0 0 0
SMALL
GASTEIGER

@<TRIPOS>ATOM
      1 SI          7.0872    4.6383   13.9289 Si      1  UNL1        0.0000
      2 N           5.4688    6.1147   15.6121 N.pl3   1  UNL1        0.0000
      3 N           5.0972    5.1511   12.0815 N.pl3   1  UNL1        0.0000
      4 N           7.7623    2.0541   14.5664 N.ar    1  UNL1        0.0000
      5 C           6.1714    4.9772   15.5621 C.3     1  UNL1        0.0000
      6 C           6.2640    4.1334   16.6619 C.2     1  UNL1        0.0000
      7 H           6.8213    3.2146   16.5762 H       1  UNL1        0.0000
      8 C           5.6334    4.4868   17.8435 C.2     1  UNL1        0.0000
      9 H           5.6901    3.8479   18.7133 H       1  UNL1        0.0000
     10 C           4.9361    5.6803   17.8913 C.2     1  UNL1        0.0000
     11 H           4.4414    6.0005   18.7957 H       1  UNL1        0.0000
     12 C           4.8670    6.4678   16.7458 C.2     1  UNL1        0.0000
     13 C           4.0932    7.7475   16.7269 C.3     1  UNL1        0.0000
     14 H           3.0434    7.5279   16.5290 H       1  UNL1        0.0000
     15 H           4.4661    8.3919   15.9286 H       1  UNL1        0.0000
     16 H           4.1626    8.2643   17.6809 H       1  UNL1        0.0000
     17 C           5.8622    4.1600   12.5535 C.3     1  UNL1        0.0000
     18 C           5.7962    2.8779   12.0226 C.2     1  UNL1        0.0000
     19 H           6.4127    2.1002   12.4436 H       1  UNL1        0.0000
     20 C           4.9355    2.6235   10.9674 C.2     1  UNL1        0.0000
     21 H           4.8662    1.6349   10.5362 H       1  UNL1        0.0000
     22 C           4.1724    3.6637   10.4693 C.2     1  UNL1        0.0000
     23 H           3.4988    3.5128    9.6393 H       1  UNL1        0.0000
     24 C           4.2733    4.9190   11.0623 C.2     1  UNL1        0.0000
     25 C           3.4423    6.0700   10.5922 C.3     1  UNL1        0.0000
     26 H           2.4647    6.0256   11.0738 H       1  UNL1        0.0000
     27 H           3.2973    6.0377    9.5151 H       1  UNL1        0.0000
     28 H           3.9216    7.0099   10.8734 H       1  UNL1        0.0000
     29 C           8.3108    3.2090   14.1905 C.ar    1  UNL1        0.0000
     30 C           9.6823    3.3356   14.0082 C.ar    1  UNL1        0.0000
     31 H          10.0943    4.2849   13.7034 H       1  UNL1        0.0000
     32 C          10.4946    2.2330   14.2231 C.ar    1  UNL1        0.0000
     33 H          11.5651    2.3021   14.0887 H       1  UNL1        0.0000
     34 C           9.9119    1.0411   14.6129 C.ar    1  UNL1        0.0000
     35 H          10.5088    0.1589   14.7905 H       1  UNL1        0.0000
     36 C           8.5276    0.9948   14.7748 C.ar    1  UNL1        0.0000
     37 C           7.8358   -0.2650   15.1961 C.3     1  UNL1        0.0000
     38 H           6.7648   -0.0920   15.2487 H       1  UNL1        0.0000
     39 H           8.1960   -0.5856   16.1725 H       1  UNL1        0.0000
     40 H           8.0371   -1.0641   14.4845 H       1  UNL1        0.0000
     41 C           8.0392    6.1888   13.4090 C.ar    1  UNL1        0.0000
     42 C           8.5229    7.0837   14.3601 C.ar    1  UNL1        0.0000
     43 H           8.3433    6.8894   15.4082 H       1  UNL1        0.0000
     44 C           9.2130    8.2205   13.9827 C.ar    1  UNL1        0.0000
     45 H           9.5715    8.9091   14.7344 H       1  UNL1        0.0000
     46 C           9.4347    8.4830   12.6416 C.ar    1  UNL1        0.0000
     47 H           9.9649    9.3761   12.3443 H       1  UNL1        0.0000
     48 C           8.9658    7.6015   11.6826 C.ar    1  UNL1        0.0000
     49 H           9.1309    7.8056   10.6344 H       1  UNL1        0.0000
     50 C           8.2763    6.4660   12.0650 C.ar    1  UNL1        0.0000
     51 H           7.9034    5.7868   11.3114 H       1  UNL1        0.0000
@<TRIPOS>BOND
     1    27    25    1
     2    23    22    1
     3    22    20    1
     4    22    24    2
     5    21    20    1
     6    25    28    1
     7    25    24    1
     8    25    26    1
     9    49    48    1
    10    20    18    2
    11    24     3    1
    12    51    50    1
    13    48    50   ar
    14    48    46   ar
    15    18    19    1
    16    18    17    1
    17    50    41   ar
    18     3    17    1
    19    47    46    1
    20    17     1    1
    21    46    44   ar
    22    41     1    1
    23    41    42   ar
    24    31    30    1
    25     1    29    1
    26     1     5    1
    27    44    42   ar
    28    44    45    1
    29    30    29   ar
    30    30    32   ar
    31    33    32    1
    32    29     4   ar
    33    32    34   ar
    34    42    43    1
    35    40    37    1
    36     4    36   ar
    37    34    36   ar
    38    34    35    1
    39    36    37    1
    40    37    38    1
    41    37    39    1
    42     5     2    1
    43     5     6    1
    44     2    12    1
    45    15    13    1
    46    14    13    1
    47     7     6    1
    48     6     8    2
    49    13    12    1
    50    13    16    1
    51    12    10    2
    52     8    10    1
    53     8     9    1
    54    10    11    1
