@<TRIPOS>MOLECULE
1,2
 58 62 0 0 0
SMALL
GASTEIGER

@<TRIPOS>ATOM
      1 N           6.8010    8.3239    4.2857 N.pl3   1  UNL1       -0.2124
      2 N           9.1042    8.1092    5.4039 N.pl3   1  UNL1       -0.2124
      3 C           7.2355    9.4628    4.9527 C.ar    1  UNL1        0.0849
      4 C           6.4578   10.6580    5.1144 C.ar    1  UNL1        0.0076
      5 C           5.1214   10.7264    4.6823 C.ar    1  UNL1       -0.0521
      6 C           4.4079   11.8934    4.7713 C.ar    1  UNL1       -0.0611
      7 C           5.0119   13.0341    5.2978 C.ar    1  UNL1       -0.0611
      8 C           6.2940   12.9718    5.7853 C.ar    1  UNL1       -0.0534
      9 C           7.0447   11.7863    5.7417 C.ar    1  UNL1       -0.0082
     10 C           8.3361   11.6619    6.3780 C.ar    1  UNL1       -0.0082
     11 C           8.9316   12.7152    7.0900 C.ar    1  UNL1       -0.0534
     12 C          10.0922   12.5405    7.8028 C.ar    1  UNL1       -0.0611
     13 C          10.6952   11.2848    7.8616 C.ar    1  UNL1       -0.0611
     14 C          10.1597   10.2404    7.1536 C.ar    1  UNL1       -0.0521
     15 C           9.0080   10.4136    6.3654 C.ar    1  UNL1        0.0076
     16 C           8.4863    9.3447    5.5636 C.ar    1  UNL1        0.0849
     17 C           6.1092    8.3081    3.0973 C.ar    1  UNL1        0.0543
     18 C           5.3559    7.1624    2.8064 C.ar    1  UNL1       -0.0358
     19 C           4.6640    7.0531    1.6128 C.ar    1  UNL1       -0.0484
     20 C           4.7250    8.0992    0.6979 C.ar    1  UNL1       -0.0558
     21 C           5.4756    9.2395    0.9584 C.ar    1  UNL1       -0.0484
     22 C           6.1695    9.3396    2.1521 C.ar    1  UNL1       -0.0358
     23 C           3.8368    5.8372    1.3172 C.3     1  UNL1       -0.0396
     24 C           5.5551   10.3395   -0.0575 C.3     1  UNL1       -0.0396
     25 C          10.4448    7.9211    5.1684 C.ar    1  UNL1        0.0543
     26 C          10.9736    6.6467    5.4259 C.ar    1  UNL1       -0.0358
     27 C          12.3031    6.3669    5.1716 C.ar    1  UNL1       -0.0484
     28 C          13.1206    7.3689    4.6545 C.ar    1  UNL1       -0.0558
     29 C          12.6191    8.6341    4.3837 C.ar    1  UNL1       -0.0484
     30 C          11.2832    8.9060    4.6354 C.ar    1  UNL1       -0.0358
     31 C          12.8766    5.0122    5.4669 C.3     1  UNL1       -0.0396
     32 C          13.4960    9.7042    3.8051 C.3     1  UNL1       -0.0396
     33 H           4.6501    9.8372    4.2902 H       1  UNL1        0.0624
     34 H           3.3818   11.9294    4.4367 H       1  UNL1        0.0618
     35 H           4.4605   13.9616    5.3472 H       1  UNL1        0.0618
     36 H           6.7191   13.8611    6.2224 H       1  UNL1        0.0624
     37 H           8.4687   13.6889    7.0970 H       1  UNL1        0.0624
     38 H          10.5244   13.3710    8.3414 H       1  UNL1        0.0618
     39 H          11.5788   11.1363    8.4643 H       1  UNL1        0.0618
     40 H          10.6147    9.2623    7.2097 H       1  UNL1        0.0624
     41 H           5.3266    6.3662    3.5501 H       1  UNL1        0.0639
     42 H           4.1813    8.0227   -0.2326 H       1  UNL1        0.0623
     43 H           6.7639   10.2177    2.3645 H       1  UNL1        0.0639
     44 H           4.1381    5.0024    1.9447 H       1  UNL1        0.0278
     45 H           2.7838    6.0468    1.5069 H       1  UNL1        0.0278
     46 H           3.9358    5.5479    0.2731 H       1  UNL1        0.0278
     47 H           5.8311   11.2807    0.4112 H       1  UNL1        0.0278
     48 H           4.6024   10.4639   -0.5675 H       1  UNL1        0.0278
     49 H           6.3085   10.0989   -0.8082 H       1  UNL1        0.0278
     50 H          10.3061    5.8898    5.8366 H       1  UNL1        0.0639
     51 H          14.1616    7.1542    4.4614 H       1  UNL1        0.0623
     52 H          10.8801    9.8847    4.4146 H       1  UNL1        0.0639
     53 H          13.5701    5.0733    6.3056 H       1  UNL1        0.0278
     54 H          13.4292    4.6346    4.6081 H       1  UNL1        0.0278
     55 H          12.0921    4.3032    5.7204 H       1  UNL1        0.0278
     56 H          14.5429    9.4146    3.8448 H       1  UNL1        0.0278
     57 H          13.3672   10.6379    4.3492 H       1  UNL1        0.0278
     58 H          13.2284    9.8857    2.7643 H       1  UNL1        0.0278
@<TRIPOS>BOND
     1    49    24    1
     2    48    24    1
     3    42    20    1
     4    24    47    1
     5    24    21    1
     6    46    23    1
     7    20    21   ar
     8    20    19   ar
     9    21    22   ar
    10    23    45    1
    11    23    19    1
    12    23    44    1
    13    19    18   ar
    14    22    43    1
    15    22    17   ar
    16    58    32    1
    17    18    17   ar
    18    18    41    1
    19    17     1    1
    20    32    56    1
    21    32    57    1
    22    32    29    1
    23     1     3    1
    24    33     5    1
    25    29    30   ar
    26    29    28   ar
    27    52    30    1
    28    34     6    1
    29    51    28    1
    30    54    31    1
    31    30    25   ar
    32    28    27   ar
    33     5     6   ar
    34     5     4   ar
    35     6     7   ar
    36     3     4   ar
    37     3    16   ar
    38     4     9   ar
    39    25     2    1
    40    25    26   ar
    41    27    26   ar
    42    27    31    1
    43     7    35    1
    44     7     8   ar
    45     2    16    1
    46    26    50    1
    47    31    55    1
    48    31    53    1
    49    16    15   ar
    50     9     8   ar
    51     9    10   ar
    52     8    36    1
    53    15    10   ar
    54    15    14   ar
    55    10    11   ar
    56    11    37    1
    57    11    12   ar
    58    14    40    1
    59    14    13   ar
    60    12    13   ar
    61    12    38    1
    62    13    39    1
