@<TRIPOS>MOLECULE
1,3
 32 32 0 0 0
SMALL
GASTEIGER

@<TRIPOS>ATOM
      1 N           3.6244    3.3377    3.7187 N.3     1  UNL1       -0.3023
      2 N           3.9479    2.4581    6.3326 N.3     1  UNL1       -0.3023
      3 N           1.2841    3.4663    5.3009 N.3     1  UNL1       -0.2348
      4 C           3.6074    3.5281    2.2700 C.3     1  UNL1       -0.0126
      5 C           4.9817    2.9642    4.1033 C.3     1  UNL1        0.0114
      6 C           5.1736    2.8096    5.6185 C.3     1  UNL1        0.0114
      7 C           4.2866    1.6499    7.5019 C.3     1  UNL1       -0.0126
      8 C           3.2554    3.6698    6.7777 C.3     1  UNL1        0.0194
      9 C           2.3850    4.3306    5.6693 C.3     1  UNL1        0.0587
     10 C           1.9657    5.7232    6.1897 C.3     1  UNL1       -0.0429
     11 C           3.2177    4.5787    4.3902 C.3     1  UNL1        0.0194
     12 C           0.1320    3.5679    6.1731 C.3     1  UNL1        0.0031
     13 H           2.5907    3.7358    1.9447 H       1  UNL1        0.0391
     14 H           3.9564    2.6199    1.7792 H       1  UNL1        0.0391
     15 H           4.2669    4.3566    1.9651 H       1  UNL1        0.0391
     16 H           5.7076    3.7150    3.7375 H       1  UNL1        0.0439
     17 H           5.2099    2.0175    3.6081 H       1  UNL1        0.0439
     18 H           5.9191    2.0248    5.7784 H       1  UNL1        0.0439
     19 H           5.5993    3.7385    6.0345 H       1  UNL1        0.0439
     20 H           4.9466    2.1923    8.1969 H       1  UNL1        0.0391
     21 H           4.7899    0.7347    7.1898 H       1  UNL1        0.0391
     22 H           3.3766    1.3738    8.0297 H       1  UNL1        0.0391
     23 H           3.9764    4.4001    7.1871 H       1  UNL1        0.0445
     24 H           2.5705    3.3932    7.5826 H       1  UNL1        0.0445
     25 H           1.2623    6.1780    5.4973 H       1  UNL1        0.0249
     26 H           2.8371    6.3703    6.2749 H       1  UNL1        0.0249
     27 H           1.4966    5.6502    7.1664 H       1  UNL1        0.0249
     28 H           2.5705    5.1389    3.7120 H       1  UNL1        0.0445
     29 H           4.0952    5.2035    4.6153 H       1  UNL1        0.0445
     30 H           0.3701    3.4546    7.2466 H       1  UNL1        0.0405
     31 H          -0.5808    2.7836    5.9102 H       1  UNL1        0.0405
     32 H          -0.3887    4.5326    6.0583 H       1  UNL1        0.0405
@<TRIPOS>BOND
     1    14     4    1
     2    13     4    1
     3    15     4    1
     4     4     1    1
     5    17     5    1
     6    28    11    1
     7     1     5    1
     8     1    11    1
     9    16     5    1
    10     5     6    1
    11    11    29    1
    12    11     9    1
    13     3     9    1
    14     3    12    1
    15    25    10    1
    16     6    18    1
    17     6    19    1
    18     6     2    1
    19     9    10    1
    20     9     8    1
    21    31    12    1
    22    32    12    1
    23    12    30    1
    24    10    26    1
    25    10    27    1
    26     2     8    1
    27     2     7    1
    28     8    23    1
    29     8    24    1
    30    21     7    1
    31     7    22    1
    32     7    20    1
