@<TRIPOS>MOLECULE
1,13
 40 40 0 0 0
SMALL
GASTEIGER

@<TRIPOS>ATOM
      1 N           4.3317    0.0829    1.3636 N.pl3   1  UNL1        0.0000
      2 C           4.6662   -1.1108    0.8604 C.3     1  UNL1        0.0000
      3 C           4.8638   -1.3441   -0.4805 C.2     1  UNL1        0.0000
      4 C           4.7811   -0.2572   -1.3604 C.2     1  UNL1        0.0000
      5 C           4.4345    0.9694   -0.8642 C.2     1  UNL1        0.0000
      6 C           4.1370    1.1229    0.5130 C.2     1  UNL1        0.0000
      7 C           3.5272    2.3185    0.9692 C.2     1  UNL1        0.0000
      8 C           2.6541    2.3963    2.0420 C.2     1  UNL1        0.0000
      9 C           1.7646    3.6486    2.1279 C.3     1  UNL1        0.0000
     10 C           1.3223    3.8941    3.5721 C.3     1  UNL1        0.0000
     11 C           0.5548    3.4390    1.2071 C.3     1  UNL1        0.0000
     12 C           2.4845    4.9180    1.6450 C.3     1  UNL1        0.0000
     13 N           2.5439    1.3859    2.9179 N.pl3   1  UNL1        0.0000
     14 SI          1.2105    0.3292    3.3055 Si      1  UNL1        0.0000
     15 C          -0.6267    0.8731    3.1239 C.3     1  UNL1        0.0000
     16 C           1.3086   -1.1283    2.0543 C.3     1  UNL1        0.0000
     17 C           1.2705   -0.2395    5.1257 C.3     1  UNL1        0.0000
     18 H           4.7614   -1.9087    1.5870 H       1  UNL1        0.0000
     19 H           5.1021   -2.3329   -0.8361 H       1  UNL1        0.0000
     20 H           4.9810   -0.3917   -2.4131 H       1  UNL1        0.0000
     21 H           4.3401    1.8266   -1.5128 H       1  UNL1        0.0000
     22 H           3.5706    3.1442    0.2773 H       1  UNL1        0.0000
     23 H           0.5413    4.6512    3.5993 H       1  UNL1        0.0000
     24 H           2.1649    4.2447    4.1638 H       1  UNL1        0.0000
     25 H           0.9458    2.9883    4.0324 H       1  UNL1        0.0000
     26 H          -0.0790    4.3235    1.2237 H       1  UNL1        0.0000
     27 H          -0.0288    2.5851    1.5202 H       1  UNL1        0.0000
     28 H           0.8871    3.2713    0.1845 H       1  UNL1        0.0000
     29 H           1.8966    5.7859    1.9377 H       1  UNL1        0.0000
     30 H           2.5833    4.9449    0.5628 H       1  UNL1        0.0000
     31 H           3.4707    5.0095    2.0887 H       1  UNL1        0.0000
     32 H          -0.8621    1.8479    3.5339 H       1  UNL1        0.0000
     33 H          -1.2330    0.1513    3.6616 H       1  UNL1        0.0000
     34 H          -0.9597    0.8468    2.0915 H       1  UNL1        0.0000
     35 H           2.1113   -1.8158    2.2967 H       1  UNL1        0.0000
     36 H           1.4683   -0.7687    1.0399 H       1  UNL1        0.0000
     37 H           0.3821   -1.6935    2.0577 H       1  UNL1        0.0000
     38 H           2.1644   -0.8035    5.3662 H       1  UNL1        0.0000
     39 H           0.4218   -0.8882    5.3209 H       1  UNL1        0.0000
     40 H           1.2127    0.5948    5.8189 H       1  UNL1        0.0000
@<TRIPOS>BOND
     1    20     4    1
     2    21     5    1
     3     4     5    1
     4     4     3    2
     5     5     6    2
     6    19     3    1
     7     3     2    1
     8    28    11    1
     9    22     7    1
    10     6     7    1
    11     6     1    1
    12    30    12    1
    13     2     1    1
    14     2    18    1
    15     7     8    2
    16    36    16    1
    17    11    26    1
    18    11    27    1
    19    11     9    1
    20    12    29    1
    21    12    31    1
    22    12     9    1
    23     8     9    1
    24     8    13    1
    25    16    37    1
    26    16    35    1
    27    16    14    1
    28    34    15    1
    29     9    10    1
    30    13    14    1
    31    15    14    1
    32    15    32    1
    33    15    33    1
    34    14    17    1
    35    10    23    1
    36    10    25    1
    37    10    24    1
    38    17    39    1
    39    17    38    1
    40    17    40    1
