@<TRIPOS>MOLECULE
1,13
 40 40 0 0 0
SMALL
GASTEIGER

@<TRIPOS>ATOM
      1 N           5.4074    2.6793    3.2988 N.pl3   1  UNL1        0.0000
      2 C           5.0244    3.7858    3.9462 C.3     1  UNL1        0.0000
      3 C           5.4008    5.0551    3.5741 C.2     1  UNL1        0.0000
      4 C           6.1680    5.2037    2.4115 C.2     1  UNL1        0.0000
      5 C           6.5739    4.0831    1.7405 C.2     1  UNL1        0.0000
      6 C           6.2440    2.7969    2.2361 C.2     1  UNL1        0.0000
      7 C           6.8824    1.6526    1.6954 C.2     1  UNL1        0.0000
      8 C           7.1554    0.4943    2.4048 C.2     1  UNL1        0.0000
      9 C           8.2147   -0.4518    1.8136 C.3     1  UNL1        0.0000
     10 C           8.1750   -0.4968    0.2776 C.3     1  UNL1        0.0000
     11 C           9.5999    0.0742    2.2132 C.3     1  UNL1        0.0000
     12 C           8.0003   -1.8803    2.3188 C.3     1  UNL1        0.0000
     13 N           6.5727    0.2561    3.5896 N.pl3   1  UNL1        0.0000
     14 SI          7.2349    0.1024    5.1967 Si      1  UNL1        0.0000
     15 C           9.0219   -0.5339    5.5221 C.3     1  UNL1        0.0000
     16 C           7.3232    1.8882    5.9055 C.3     1  UNL1        0.0000
     17 C           6.1983   -1.0813    6.2760 C.3     1  UNL1        0.0000
     18 H           4.3955    3.6202    4.8127 H       1  UNL1        0.0000
     19 H           5.0885    5.9109    4.1495 H       1  UNL1        0.0000
     20 H           6.4383    6.1880    2.0588 H       1  UNL1        0.0000
     21 H           7.1833    4.1551    0.8528 H       1  UNL1        0.0000
     22 H           7.3875    1.8146    0.7568 H       1  UNL1        0.0000
     23 H           8.7809   -1.3341   -0.0631 H       1  UNL1        0.0000
     24 H           8.5892    0.4040   -0.1683 H       1  UNL1        0.0000
     25 H           7.1636   -0.6362   -0.0905 H       1  UNL1        0.0000
     26 H           9.7158    0.0864    3.2876 H       1  UNL1        0.0000
     27 H           9.7370    1.0879    1.8417 H       1  UNL1        0.0000
     28 H          10.3734   -0.5590    1.7831 H       1  UNL1        0.0000
     29 H           7.8546   -1.9052    3.3923 H       1  UNL1        0.0000
     30 H           8.8605   -2.4975    2.0680 H       1  UNL1        0.0000
     31 H           7.1176   -2.3108    1.8514 H       1  UNL1        0.0000
     32 H           9.7681    0.2306    5.3325 H       1  UNL1        0.0000
     33 H           9.3005   -1.4264    4.9748 H       1  UNL1        0.0000
     34 H           9.0921   -0.7777    6.5774 H       1  UNL1        0.0000
     35 H           7.7508    2.5798    5.1827 H       1  UNL1        0.0000
     36 H           7.9499    1.9136    6.7912 H       1  UNL1        0.0000
     37 H           6.3445    2.2602    6.1873 H       1  UNL1        0.0000
     38 H           5.1777   -0.7444    6.4178 H       1  UNL1        0.0000
     39 H           6.6516   -1.1491    7.2604 H       1  UNL1        0.0000
     40 H           6.1580   -2.0851    5.8629 H       1  UNL1        0.0000
@<TRIPOS>BOND
     1    24    10    1
     2    25    10    1
     3    23    10    1
     4    10     9    1
     5    22     7    1
     6    21     5    1
     7     7     6    1
     8     7     8    2
     9     5     6    2
    10     5     4    1
    11    28    11    1
    12     9    11    1
    13     9    12    1
    14     9     8    1
    15    27    11    1
    16    31    12    1
    17    20     4    1
    18    30    12    1
    19    11    26    1
    20     6     1    1
    21    12    29    1
    22     8    13    1
    23     4     3    2
    24     1     2    1
    25     3     2    1
    26     3    19    1
    27    13    14    1
    28     2    18    1
    29    33    15    1
    30    35    16    1
    31    14    15    1
    32    14    16    1
    33    14    17    1
    34    32    15    1
    35    15    34    1
    36    40    17    1
    37    16    37    1
    38    16    36    1
    39    17    38    1
    40    17    39    1
