@<TRIPOS>MOLECULE
1,2
 77 79 0 0 0
SMALL
GASTEIGER

@<TRIPOS>ATOM
      1 N          30.9681   12.8595    4.0986 N.pl3   1  UNL1       -0.2148
      2 N          31.1815   12.7589    6.3506 N.pl3   1  UNL1       -0.2148
      3 C          28.5386   12.3734   -2.8919 C.3     1  UNL1       -0.0586
      4 H          29.1060   13.2937   -3.0129 H       1  UNL1        0.0235
      5 H          27.8398   12.2853   -3.7213 H       1  UNL1        0.0235
      6 H          29.2305   11.5363   -2.9382 H       1  UNL1        0.0235
      7 C          30.9666   16.5879    6.5519 C.3     1  UNL1       -0.0586
      8 H          30.2570   17.1557    5.9530 H       1  UNL1        0.0235
      9 H          31.7905   16.2825    5.9103 H       1  UNL1        0.0235
     10 H          31.3586   17.2378    7.3315 H       1  UNL1        0.0235
     11 C          30.0577   16.2821    1.8319 C.3     1  UNL1       -0.0586
     12 H          29.9308   17.1726    2.4442 H       1  UNL1        0.0235
     13 H          29.7353   16.5089    0.8174 H       1  UNL1        0.0235
     14 H          31.1139   16.0269    1.8102 H       1  UNL1        0.0235
     15 C          33.0753   10.1270    9.0512 C.3     1  UNL1       -0.0586
     16 H          33.1615    9.1194    8.6506 H       1  UNL1        0.0235
     17 H          32.2063   10.1653    9.7047 H       1  UNL1        0.0235
     18 H          33.9636   10.3270    9.6461 H       1  UNL1        0.0235
     19 C          34.2535   11.2162    7.1254 C.3     1  UNL1       -0.0586
     20 H          34.5738   10.2255    6.8094 H       1  UNL1        0.0235
     21 H          35.0337   11.6497    7.7490 H       1  UNL1        0.0235
     22 H          34.1330   11.8367    6.2408 H       1  UNL1        0.0235
     23 C          26.9905   11.0896   -1.3735 C.3     1  UNL1       -0.0586
     24 H          26.4640   11.1057   -0.4221 H       1  UNL1        0.0235
     25 H          27.6527   10.2275   -1.3822 H       1  UNL1        0.0235
     26 H          26.2625   10.9721   -2.1735 H       1  UNL1        0.0235
     27 C          31.6959   13.1969    5.2035 C.3     1  UNL1        0.1982
     28 C          32.8930   13.9486    5.0623 C.2     1  UNL1       -0.0356
     29 H          33.4459   14.2207    5.9489 H       1  UNL1        0.0612
     30 C          33.3195   14.2954    3.8102 C.2     1  UNL1       -0.0601
     31 H          34.2396   14.8491    3.6828 H       1  UNL1        0.0616
     32 C          32.5526   13.9547    2.6920 C.2     1  UNL1       -0.0386
     33 H          32.8581   14.2401    1.6980 H       1  UNL1        0.0637
     34 C          31.3744   13.2587    2.8891 C.2     1  UNL1        0.0584
     35 C          30.4440   12.9952    1.7597 C.ar    1  UNL1        0.0045
     36 C          30.6194   11.8888    0.9275 C.ar    1  UNL1       -0.0353
     37 C          29.7563   11.7085   -0.1432 C.ar    1  UNL1       -0.0543
     38 H          29.8943   10.8590   -0.7935 H       1  UNL1        0.0623
     39 C          28.7257   12.5978   -0.4013 C.ar    1  UNL1       -0.0442
     40 C          28.5679   13.6896    0.4380 C.ar    1  UNL1       -0.0543
     41 H          27.7704   14.3875    0.2344 H       1  UNL1        0.0623
     42 C          29.4041   13.9022    1.5236 C.ar    1  UNL1       -0.0353
     43 C          29.2339   15.1228    2.4028 C.3     1  UNL1       -0.0209
     44 H          29.6219   14.8830    3.3993 H       1  UNL1        0.0344
     45 C          27.7744   15.5504    2.5617 C.3     1  UNL1       -0.0586
     46 H          27.6918   16.2802    3.3651 H       1  UNL1        0.0235
     47 H          27.1499   14.6950    2.8050 H       1  UNL1        0.0235
     48 H          27.3993   16.0167    1.6533 H       1  UNL1        0.0235
     49 C          27.7838   12.3846   -1.5613 C.3     1  UNL1       -0.0215
     50 H          27.0733   13.2188   -1.5814 H       1  UNL1        0.0343
     51 C          31.7592   10.9224    1.1569 C.3     1  UNL1       -0.0209
     52 H          32.1772   11.1139    2.1506 H       1  UNL1        0.0344
     53 C          31.2975    9.4654    1.1133 C.3     1  UNL1       -0.0586
     54 H          32.1247    8.8061    1.3679 H       1  UNL1        0.0235
     55 H          30.9466    9.1895    0.1221 H       1  UNL1        0.0235
     56 H          30.4939    9.3020    1.8275 H       1  UNL1        0.0235
     57 C          32.8568   11.1665    0.1170 C.3     1  UNL1       -0.0586
     58 H          33.6927   10.4900    0.2826 H       1  UNL1        0.0235
     59 H          33.2221   12.1885    0.1826 H       1  UNL1        0.0235
     60 H          32.4734   11.0041   -0.8881 H       1  UNL1        0.0235
     61 C          31.6741   13.2769    7.5602 C.ar    1  UNL1        0.0576
     62 C          31.2603   14.5516    7.9864 C.ar    1  UNL1       -0.0219
     63 C          31.7451   15.0487    9.1864 C.ar    1  UNL1       -0.0565
     64 H          31.4513   16.0348    9.5148 H       1  UNL1        0.0621
     65 C          32.6101   14.3060    9.9678 C.ar    1  UNL1       -0.0611
     66 H          32.9901   14.7136   10.8933 H       1  UNL1        0.0618
     67 C          32.9849   13.0377    9.5637 C.ar    1  UNL1       -0.0565
     68 H          33.6559   12.4639   10.1845 H       1  UNL1        0.0621
     69 C          32.5239   12.5052    8.3698 C.ar    1  UNL1       -0.0219
     70 C          32.9379   11.1284    7.9047 C.3     1  UNL1       -0.0197
     71 H          32.1573   10.7660    7.2229 H       1  UNL1        0.0344
     72 C          30.2841   15.3620    7.1621 C.3     1  UNL1       -0.0197
     73 H          29.9183   14.7301    6.3415 H       1  UNL1        0.0344
     74 C          29.0681   15.7761    7.9942 C.3     1  UNL1       -0.0586
     75 H          28.3366   16.2743    7.3610 H       1  UNL1        0.0235
     76 H          29.3484   16.4591    8.7924 H       1  UNL1        0.0235
     77 H          28.6001   14.8989    8.4366 H       1  UNL1        0.0235
@<TRIPOS>BOND
     1     5     3    1
     2     4     3    1
     3     6     3    1
     4     3    49    1
     5    26    23    1
     6    50    49    1
     7    49    23    1
     8    49    39    1
     9    25    23    1
    10    23    24    1
    11    60    57    1
    12    38    37    1
    13    39    37   ar
    14    39    40   ar
    15    37    36   ar
    16    57    59    1
    17    57    58    1
    18    57    51    1
    19    55    53    1
    20    41    40    1
    21    40    42   ar
    22    13    11    1
    23    36    51    1
    24    36    35   ar
    25    53    51    1
    26    53    54    1
    27    53    56    1
    28    51    52    1
    29    42    35   ar
    30    42    43    1
    31    48    45    1
    32    33    32    1
    33    35    34    1
    34    14    11    1
    35    11    43    1
    36    11    12    1
    37    43    45    1
    38    43    44    1
    39    45    47    1
    40    45    46    1
    41    32    34    2
    42    32    30    1
    43    34     1    1
    44    31    30    1
    45    30    28    2
    46     1    27    1
    47    28    27    1
    48    28    29    1
    49    27     2    1
    50     9     7    1
    51     8     7    1
    52    22    19    1
    53    73    72    1
    54     2    61    1
    55     7    72    1
    56     7    10    1
    57    20    19    1
    58    19    21    1
    59    19    70    1
    60    72    62    1
    61    72    74    1
    62    71    70    1
    63    75    74    1
    64    61    62   ar
    65    61    69   ar
    66    70    69    1
    67    70    15    1
    68    62    63   ar
    69    74    77    1
    70    74    76    1
    71    69    67   ar
    72    16    15    1
    73    15    18    1
    74    15    17    1
    75    63    64    1
    76    63    65   ar
    77    67    65   ar
    78    67    68    1
    79    65    66    1
