@<TRIPOS>MOLECULE
2,3
 39 39 0 0 0
SMALL
GASTEIGER

@<TRIPOS>ATOM
      1 SI          0.6091    7.1260   10.9259 Si      1  UNL1        0.0000
      2 N          -0.6010    8.8821    9.0789 N.pl3   1  UNL1        0.0000
      3 N          -1.1639    9.8522    9.7339 N.2     1  UNL1        0.0000
      4 N          -0.5302   10.3819   10.7267 N.2     1  UNL1        0.0000
      5 C          -1.0704   11.4393   11.4183 C.ar    1  UNL1        0.0000
      6 C          -0.1421   12.3988   11.8709 C.ar    1  UNL1        0.0000
      7 C          -0.5755   13.4814   12.6086 C.ar    1  UNL1        0.0000
      8 H           0.1441   14.2217   12.9313 H       1  UNL1        0.0000
      9 C          -1.9111   13.6336   12.9611 C.ar    1  UNL1        0.0000
     10 C          -2.8073   12.6549   12.5613 C.ar    1  UNL1        0.0000
     11 H          -3.8434   12.7320   12.8693 H       1  UNL1        0.0000
     12 C          -2.4216   11.5689   11.7889 C.ar    1  UNL1        0.0000
     13 C           1.3100   12.2174   11.5500 C.3     1  UNL1        0.0000
     14 H           1.8935   13.0632   11.9060 H       1  UNL1        0.0000
     15 H           1.4548   12.1149   10.4764 H       1  UNL1        0.0000
     16 H           1.6782   11.3060   12.0197 H       1  UNL1        0.0000
     17 C          -3.4371   10.5198   11.4314 C.3     1  UNL1        0.0000
     18 H          -3.6203   10.4815   10.3525 H       1  UNL1        0.0000
     19 H          -4.3815   10.7116   11.9409 H       1  UNL1        0.0000
     20 H          -3.0751    9.5392   11.7371 H       1  UNL1        0.0000
     21 C          -2.3579   14.8244   13.7577 C.3     1  UNL1        0.0000
     22 H          -2.3659   15.7190   13.1322 H       1  UNL1        0.0000
     23 H          -1.6777   15.0080   14.5877 H       1  UNL1        0.0000
     24 H          -3.3588   14.6743   14.1576 H       1  UNL1        0.0000
     25 C           0.7077    8.4415    9.5263 C.3     1  UNL1        0.0000
     26 H           1.2656    9.3168    9.8817 H       1  UNL1        0.0000
     27 H           1.2224    8.0122    8.6644 H       1  UNL1        0.0000
     28 C          -0.3808    7.7121   12.4502 C.3     1  UNL1        0.0000
     29 H          -1.4485    7.7169   12.2529 H       1  UNL1        0.0000
     30 H          -0.1001    8.7192   12.7426 H       1  UNL1        0.0000
     31 H          -0.2082    7.0556   13.2987 H       1  UNL1        0.0000
     32 C           2.4081    6.7686   11.4642 C.3     1  UNL1        0.0000
     33 H           2.4395    5.9619   12.1893 H       1  UNL1        0.0000
     34 H           2.8730    7.6369   11.9209 H       1  UNL1        0.0000
     35 H           3.0227    6.4736   10.6193 H       1  UNL1        0.0000
     36 C          -0.1638    5.5310   10.2162 C.3     1  UNL1        0.0000
     37 H          -0.3061    4.7850   10.9930 H       1  UNL1        0.0000
     38 H           0.4801    5.0939    9.4589 H       1  UNL1        0.0000
     39 H          -1.1286    5.7158    9.7537 H       1  UNL1        0.0000
@<TRIPOS>BOND
     1    27    25    1
     2     2    25    1
     3     2     3    1
     4    38    36    1
     5    25    26    1
     6    25     1    1
     7     3     4    2
     8    39    36    1
     9    36     1    1
    10    36    37    1
    11    18    17    1
    12    15    13    1
    13    35    32    1
    14     4     5    1
    15     1    32    1
    16     1    28    1
    17     5    12   ar
    18     5     6   ar
    19    17    20    1
    20    17    12    1
    21    17    19    1
    22    32    34    1
    23    32    33    1
    24    13     6    1
    25    13    14    1
    26    13    16    1
    27    12    10   ar
    28     6     7   ar
    29    29    28    1
    30    28    30    1
    31    28    31    1
    32    10    11    1
    33    10     9   ar
    34     7     8    1
    35     7     9   ar
    36     9    21    1
    37    22    21    1
    38    21    24    1
    39    21    23    1
