@<TRIPOS>MOLECULE
2,3
 39 39 0 0 0
SMALL
GASTEIGER

@<TRIPOS>ATOM
      1 SI         -2.0131    9.9554    2.8124 Si      1  UNL1        0.0000
      2 N          -1.7586   10.1164    5.6451 N.pl3   1  UNL1        0.0000
      3 N          -0.9005    9.1871    5.9409 N.2     1  UNL1        0.0000
      4 N           0.0908    8.9885    5.1376 N.2     1  UNL1        0.0000
      5 C           1.0543    8.0490    5.4350 C.ar    1  UNL1        0.0000
      6 C           2.3336    8.3047    4.9048 C.ar    1  UNL1        0.0000
      7 C           3.3765    7.4338    5.1645 C.ar    1  UNL1        0.0000
      8 H           4.3559    7.6558    4.7618 H       1  UNL1        0.0000
      9 C           3.1934    6.2854    5.9201 C.ar    1  UNL1        0.0000
     10 C           1.9135    6.0042    6.3756 C.ar    1  UNL1        0.0000
     11 H           1.7421    5.0887    6.9267 H       1  UNL1        0.0000
     12 C           0.8405    6.8489    6.1436 C.ar    1  UNL1        0.0000
     13 C           2.5830    9.5220    4.0610 C.3     1  UNL1        0.0000
     14 H           3.2468    9.2774    3.2332 H       1  UNL1        0.0000
     15 H           3.0572   10.3079    4.6493 H       1  UNL1        0.0000
     16 H           1.6428    9.9005    3.6708 H       1  UNL1        0.0000
     17 C           4.3403    5.3705    6.2313 C.3     1  UNL1        0.0000
     18 H           4.7894    5.6434    7.1877 H       1  UNL1        0.0000
     19 H           5.1106    5.4396    5.4662 H       1  UNL1        0.0000
     20 H           4.0047    4.3380    6.3015 H       1  UNL1        0.0000
     21 C          -0.5267    6.4246    6.5891 C.3     1  UNL1        0.0000
     22 H          -0.5401    5.3584    6.8083 H       1  UNL1        0.0000
     23 H          -1.2549    6.6234    5.8058 H       1  UNL1        0.0000
     24 H          -0.8460    6.9642    7.4848 H       1  UNL1        0.0000
     25 C          -1.5172   10.8720    4.4300 C.3     1  UNL1        0.0000
     26 H          -0.4528   11.1361    4.3845 H       1  UNL1        0.0000
     27 H          -2.1005   11.7914    4.5063 H       1  UNL1        0.0000
     28 C          -1.2256    8.2466    2.5128 C.3     1  UNL1        0.0000
     29 H          -1.4632    7.5441    3.3041 H       1  UNL1        0.0000
     30 H          -0.1434    8.3126    2.4624 H       1  UNL1        0.0000
     31 H          -1.5798    7.8250    1.5753 H       1  UNL1        0.0000
     32 C          -1.4933   11.1026    1.3716 C.3     1  UNL1        0.0000
     33 H          -1.8424   10.7067    0.4235 H       1  UNL1        0.0000
     34 H          -0.4143   11.2003    1.3051 H       1  UNL1        0.0000
     35 H          -1.9067   12.1008    1.4813 H       1  UNL1        0.0000
     36 C          -3.9264    9.8276    2.8081 C.3     1  UNL1        0.0000
     37 H          -4.3286    9.8243    3.8169 H       1  UNL1        0.0000
     38 H          -4.2634    8.9209    2.3151 H       1  UNL1        0.0000
     39 H          -4.3729   10.6685    2.2851 H       1  UNL1        0.0000
@<TRIPOS>BOND
     1    33    32    1
     2    34    32    1
     3    32    35    1
     4    32     1    1
     5    31    28    1
     6    39    36    1
     7    38    36    1
     8    30    28    1
     9    28     1    1
    10    28    29    1
    11    36     1    1
    12    36    37    1
    13     1    25    1
    14    14    13    1
    15    16    13    1
    16    13    15    1
    17    13     6    1
    18    26    25    1
    19    25    27    1
    20    25     2    1
    21     8     7    1
    22     6     7   ar
    23     6     5   ar
    24     4     5    1
    25     4     3    2
    26     7     9   ar
    27     5    12   ar
    28    19    17    1
    29     2     3    1
    30    23    21    1
    31     9    17    1
    32     9    10   ar
    33    12    10   ar
    34    12    21    1
    35    17    20    1
    36    17    18    1
    37    10    11    1
    38    21    22    1
    39    21    24    1
