@<TRIPOS>MOLECULE
1,35
 61 61 0 0 0
SMALL
GASTEIGER

@<TRIPOS>ATOM
      1 N           3.8779   14.9336    3.7650 N.3     1  UNL1        0.0000
      2 SI          2.1870   15.2170    3.8136 Si      1  UNL1        0.0000
      3 C           1.4417   13.5821    4.4110 C.3     1  UNL1        0.0000
      4 H           1.4310   12.8329    3.6314 H       1  UNL1        0.0000
      5 H           0.4243   13.7068    4.7664 H       1  UNL1        0.0000
      6 H           2.0512   13.2123    5.2268 H       1  UNL1        0.0000
      7 C           1.5233   16.5513    5.0260 C.3     1  UNL1        0.0000
      8 H           2.1040   16.5475    5.9400 H       1  UNL1        0.0000
      9 H           0.4959   16.3248    5.2948 H       1  UNL1        0.0000
     10 H           1.5300   17.5570    4.6153 H       1  UNL1        0.0000
     11 C           1.4710   15.6485    2.0796 C.3     1  UNL1        0.0000
     12 H           1.1620   16.6869    2.0074 H       1  UNL1        0.0000
     13 H           0.6041   15.0378    1.8487 H       1  UNL1        0.0000
     14 H           2.2090   15.4715    1.3033 H       1  UNL1        0.0000
     15 C           4.7827   15.3761    2.9435 C.3     1  UNL1        0.0000
     16 N           4.7108   16.6166    2.3495 N.3     1  UNL1        0.0000
     17 C           4.0617   17.7449    2.9626 C.3     1  UNL1        0.0000
     18 H           3.7226   17.4482    3.9515 H       1  UNL1        0.0000
     19 H           3.1932   18.0599    2.3693 H       1  UNL1        0.0000
     20 C           5.0450   18.9164    3.0799 C.3     1  UNL1        0.0000
     21 H           5.8543   18.6377    3.7565 H       1  UNL1        0.0000
     22 H           4.5264   19.7770    3.5057 H       1  UNL1        0.0000
     23 C           5.6307   19.2715    1.7161 C.3     1  UNL1        0.0000
     24 H           4.8344   19.6299    1.0589 H       1  UNL1        0.0000
     25 H           6.3670   20.0712    1.8185 H       1  UNL1        0.0000
     26 C           6.2730   18.0321    1.0996 C.3     1  UNL1        0.0000
     27 H           7.1155   17.7116    1.7156 H       1  UNL1        0.0000
     28 H           6.6433   18.2508    0.0966 H       1  UNL1        0.0000
     29 C           5.2315   16.9136    1.0375 C.3     1  UNL1        0.0000
     30 H           4.3951   17.2513    0.4062 H       1  UNL1        0.0000
     31 H           5.6425   16.0104    0.5884 H       1  UNL1        0.0000
     32 C           5.9328   14.6000    2.6019 C.2     1  UNL1        0.0000
     33 H           6.7414   15.1413    2.1455 H       1  UNL1        0.0000
     34 C           6.0475   13.2369    2.7143 C.2     1  UNL1        0.0000
     35 N           5.1184   12.4894    3.3303 N.pl3   1  UNL1        0.0000
     36 SI          4.0926   11.2618    2.6973 Si      1  UNL1        0.0000
     37 C           4.7731    9.6071    1.9666 C.3     1  UNL1        0.0000
     38 H           5.4353    9.7232    1.1152 H       1  UNL1        0.0000
     39 H           3.9280    9.0106    1.6321 H       1  UNL1        0.0000
     40 H           5.2987    9.0174    2.7125 H       1  UNL1        0.0000
     41 C           3.0528   10.6397    4.1677 C.3     1  UNL1        0.0000
     42 H           3.3822    9.6600    4.4947 H       1  UNL1        0.0000
     43 H           2.0059   10.5499    3.9030 H       1  UNL1        0.0000
     44 H           3.1358   11.3178    5.0104 H       1  UNL1        0.0000
     45 C           3.0232   11.9962    1.2822 C.3     1  UNL1        0.0000
     46 H           2.7025   13.0002    1.5357 H       1  UNL1        0.0000
     47 H           2.1385   11.3963    1.0923 H       1  UNL1        0.0000
     48 H           3.5795   12.0559    0.3513 H       1  UNL1        0.0000
     49 C           7.2842   12.5874    2.0632 C.3     1  UNL1        0.0000
     50 C           6.9373   12.3183    0.5933 C.3     1  UNL1        0.0000
     51 H           7.7840   11.8642    0.0808 H       1  UNL1        0.0000
     52 H           6.6871   13.2498    0.0893 H       1  UNL1        0.0000
     53 H           6.0837   11.6538    0.5168 H       1  UNL1        0.0000
     54 C           8.5193   13.5017    2.1089 C.3     1  UNL1        0.0000
     55 H           8.6509   13.9233    3.1016 H       1  UNL1        0.0000
     56 H           8.4585   14.3117    1.3865 H       1  UNL1        0.0000
     57 H           9.4035   12.9159    1.8631 H       1  UNL1        0.0000
     58 C           7.6742   11.2859    2.7670 C.3     1  UNL1        0.0000
     59 H           8.4116   10.7499    2.1717 H       1  UNL1        0.0000
     60 H           6.8170   10.6445    2.9143 H       1  UNL1        0.0000
     61 H           8.1112   11.5023    3.7385 H       1  UNL1        0.0000
@<TRIPOS>BOND
     1    51    50    1
     2    52    50    1
     3    28    26    1
     4    48    45    1
     5    30    29    1
     6    53    50    1
     7    31    29    1
     8    50    49    1
     9    29    26    1
    10    29    16    1
    11    24    23    1
    12    47    45    1
    13    26    27    1
    14    26    23    1
    15    38    37    1
    16    45    46    1
    17    45    36    1
    18    14    11    1
    19    56    54    1
    20    39    37    1
    21    23    25    1
    22    23    20    1
    23    13    11    1
    24    57    54    1
    25    37    36    1
    26    37    40    1
    27    12    11    1
    28    49    54    1
    29    49    34    1
    30    49    58    1
    31    11     2    1
    32    54    55    1
    33    33    32    1
    34    59    58    1
    35    16    15    1
    36    16    17    1
    37    19    17    1
    38    32    34    2
    39    32    15    1
    40    36    35    1
    41    36    41    1
    42    34    35    1
    43    58    60    1
    44    58    61    1
    45    15     1    1
    46    17    20    1
    47    17    18    1
    48    20    22    1
    49    20    21    1
    50     4     3    1
    51     1     2    1
    52     2     3    1
    53     2     7    1
    54    43    41    1
    55    41    42    1
    56    41    44    1
    57     3     5    1
    58     3     6    1
    59    10     7    1
    60     7     9    1
    61     7     8    1
