@<TRIPOS>MOLECULE
1,2
 61 61 0 0 0
SMALL
GASTEIGER

@<TRIPOS>ATOM
      1 N           5.0105    3.9093   12.6534 N.pl3   1  UNL1        0.5000
      2 N           2.4989    4.5230   11.7841 N.3     1  UNL1        0.0000
      3 C           5.3549    5.0867   12.1376 C.2     1  UNL1        0.0000
      4 C           4.3700    5.9672   11.6001 C.2     1  UNL1        0.0000
      5 H           4.7212    6.9483   11.3402 H       1  UNL1        0.0000
      6 C           3.0093    5.7209   11.4727 C.3     1  UNL1        0.0000
      7 SI          5.9337    2.4351   12.5834 Si      1  UNL1        0.0000
      8 C           4.5909    1.0994   12.3184 C.3     1  UNL1        0.0000
      9 H           3.8500    1.4129   11.5858 H       1  UNL1        0.0000
     10 H           4.0906    0.8716   13.2571 H       1  UNL1        0.0000
     11 H           5.0362    0.1757   11.9627 H       1  UNL1        0.0000
     12 C           6.9739    1.9468   14.1159 C.3     1  UNL1        0.0000
     13 H           6.4980    2.2727   15.0368 H       1  UNL1        0.0000
     14 H           7.9833    2.3458   14.0928 H       1  UNL1        0.0000
     15 H           7.0566    0.8657   14.1657 H       1  UNL1        0.0000
     16 C           7.0657    2.4738   11.0402 C.3     1  UNL1        0.0000
     17 H           6.5343    2.8556   10.1744 H       1  UNL1        0.0000
     18 H           7.4154    1.4759   10.8015 H       1  UNL1        0.0000
     19 H           7.9392    3.0977   11.1905 H       1  UNL1        0.0000
     20 N           6.6626    5.4731   12.1274 N.pl3   1  UNL1        0.5000
     21 C           7.4907    5.2629   13.2997 C.3     1  UNL1        0.0000
     22 H           8.4724    4.8922   12.9847 H       1  UNL1        0.0000
     23 H           7.0127    4.5266   13.9427 H       1  UNL1        0.0000
     24 C           7.6429    6.5710   14.0841 C.3     1  UNL1        0.0000
     25 H           6.6590    6.8675   14.4536 H       1  UNL1        0.0000
     26 H           8.2918    6.3926   14.9422 H       1  UNL1        0.0000
     27 C           8.2158    7.6741   13.2012 C.3     1  UNL1        0.0000
     28 H           9.2227    7.4020   12.8733 H       1  UNL1        0.0000
     29 H           8.2850    8.6063   13.7632 H       1  UNL1        0.0000
     30 C           7.3132    7.8559   11.9855 C.3     1  UNL1        0.0000
     31 H           6.3323    8.1966   12.3200 H       1  UNL1        0.0000
     32 H           7.7252    8.6001   11.3020 H       1  UNL1        0.0000
     33 C           7.1790    6.5137   11.2633 C.3     1  UNL1        0.0000
     34 H           6.5533    6.5926   10.3742 H       1  UNL1        0.0000
     35 H           8.1765    6.1883   10.9417 H       1  UNL1        0.0000
     36 C           2.0844    6.8880   11.1023 C.3     1  UNL1        0.0000
     37 C           2.8129    8.2158   10.8624 C.3     1  UNL1        0.0000
     38 H           2.0741    8.9762   10.6158 H       1  UNL1        0.0000
     39 H           3.5090    8.1506   10.0290 H       1  UNL1        0.0000
     40 H           3.3392    8.5431   11.7557 H       1  UNL1        0.0000
     41 C           1.2790    6.5695    9.8405 C.3     1  UNL1        0.0000
     42 H           0.5223    7.3342    9.6801 H       1  UNL1        0.0000
     43 H           0.7878    5.6074    9.9179 H       1  UNL1        0.0000
     44 H           1.9388    6.5478    8.9755 H       1  UNL1        0.0000
     45 C           1.1749    7.0794   12.3273 C.3     1  UNL1        0.0000
     46 H           0.5492    7.9601   12.1959 H       1  UNL1        0.0000
     47 H           1.7881    7.2191   13.2236 H       1  UNL1        0.0000
     48 H           0.5336    6.2182   12.4852 H       1  UNL1        0.0000
     49 SI          1.1257    3.5219   11.4779 Si      1  UNL1        0.0000
     50 C           1.3612    2.7438    9.7406 C.3     1  UNL1        0.0000
     51 H           2.3995    2.4840    9.5590 H       1  UNL1        0.0000
     52 H           1.0518    3.4160    8.9483 H       1  UNL1        0.0000
     53 H           0.7691    1.8405    9.6461 H       1  UNL1        0.0000
     54 C          -0.7089    4.0580   11.6752 C.3     1  UNL1        0.0000
     55 H          -1.0198    4.8518   11.0034 H       1  UNL1        0.0000
     56 H          -0.9061    4.3828   12.6938 H       1  UNL1        0.0000
     57 H          -1.3511    3.2038   11.4784 H       1  UNL1        0.0000
     58 C           1.3662    2.1404   12.8046 C.3     1  UNL1        0.0000
     59 H           2.3009    2.2929   13.3697 H       1  UNL1        0.0000
     60 H           1.3958    1.1457   12.3656 H       1  UNL1        0.0000
     61 H           0.5452    2.1541   13.5200 H       1  UNL1        0.0000
@<TRIPOS>BOND
     1    52    50    1
     2    44    41    1
     3    51    50    1
     4    53    50    1
     5    42    41    1
     6    50    49    1
     7    41    43    1
     8    41    36    1
     9    39    37    1
    10    17    16    1
    11    34    33    1
    12    38    37    1
    13    18    16    1
    14    37    36    1
    15    37    40    1
    16    35    33    1
    17    55    54    1
    18    16    19    1
    19    16     7    1
    20    36     6    1
    21    36    45    1
    22    33    30    1
    23    33    20    1
    24    32    30    1
    25     5     4    1
    26     6     4    1
    27     6     2    1
    28    49    54    1
    29    49     2    1
    30    49    58    1
    31    57    54    1
    32     9     8    1
    33     4     3    2
    34    54    56    1
    35    11     8    1
    36    30    31    1
    37    30    27    1
    38    20     3    1
    39    20    21    1
    40     3     1    1
    41    46    45    1
    42     8     7    1
    43     8    10    1
    44    45    48    1
    45    45    47    1
    46    60    58    1
    47     7     1    1
    48     7    12    1
    49    58    59    1
    50    58    61    1
    51    28    27    1
    52    22    21    1
    53    27    29    1
    54    27    24    1
    55    21    23    1
    56    21    24    1
    57    24    25    1
    58    24    26    1
    59    14    12    1
    60    12    15    1
    61    12    13    1
