@<TRIPOS>MOLECULE
1,2
 61 61 0 0 0
SMALL
GASTEIGER

@<TRIPOS>ATOM
      1 N           5.0272   14.7788    6.4025 N.3     1  UNL1        0.0000
      2 N           3.9021   12.4469    6.9556 N.pl3   1  UNL1        0.0000
      3 N           4.1759   16.5747    7.6674 N.3     1  UNL1        0.0000
      4 SI          6.7215   15.1153    6.3918 Si      1  UNL1        0.0000
      5 SI          4.8636   11.1333    7.5202 Si      1  UNL1        0.0000
      6 C           4.1084   15.2902    7.1851 C.3     1  UNL1        0.0000
      7 C           2.9855   14.5276    7.5868 C.2     1  UNL1        0.0000
      8 H           2.1635   15.0708    8.0121 H       1  UNL1        0.0000
      9 C           2.9308   13.1518    7.5327 C.2     1  UNL1        0.0000
     10 C           4.8362   17.6481    6.9718 C.3     1  UNL1        0.0000
     11 H           5.0800   17.3019    5.9707 H       1  UNL1        0.0000
     12 H           5.7611   17.9368    7.4885 H       1  UNL1        0.0000
     13 C           3.9151   18.8714    6.8849 C.3     1  UNL1        0.0000
     14 H           3.0513   18.6281    6.2663 H       1  UNL1        0.0000
     15 H           4.4571   19.6886    6.4060 H       1  UNL1        0.0000
     16 C           3.4346   19.2926    8.2703 C.3     1  UNL1        0.0000
     17 H           4.2870   19.6182    8.8719 H       1  UNL1        0.0000
     18 H           2.7407   20.1314    8.1891 H       1  UNL1        0.0000
     19 C           2.7597   18.1063    8.9516 C.3     1  UNL1        0.0000
     20 H           1.8729   17.8146    8.3864 H       1  UNL1        0.0000
     21 H           2.4518   18.3691    9.9650 H       1  UNL1        0.0000
     22 C           3.7427   16.9370    8.9960 C.3     1  UNL1        0.0000
     23 H           4.6262   17.2461    9.5766 H       1  UNL1        0.0000
     24 H           3.3056   16.0697    9.4889 H       1  UNL1        0.0000
     25 C           1.7214   12.4725    8.1978 C.3     1  UNL1        0.0000
     26 C           2.1107   12.1393    9.6432 C.3     1  UNL1        0.0000
     27 H           1.2853   11.6441   10.1521 H       1  UNL1        0.0000
     28 H           2.3527   13.0523   10.1842 H       1  UNL1        0.0000
     29 H           2.9791   11.4917    9.6703 H       1  UNL1        0.0000
     30 C           0.4818   13.3796    8.2368 C.3     1  UNL1        0.0000
     31 H           0.2994   13.8252    7.2630 H       1  UNL1        0.0000
     32 H           0.5733   14.1694    8.9782 H       1  UNL1        0.0000
     33 H          -0.3853   12.7796    8.5083 H       1  UNL1        0.0000
     34 C           1.3129   11.2123    7.4324 C.3     1  UNL1        0.0000
     35 H           0.5812   10.6479    8.0079 H       1  UNL1        0.0000
     36 H           2.1626   10.5758    7.2328 H       1  UNL1        0.0000
     37 H           0.8648   11.4900    6.4818 H       1  UNL1        0.0000
     38 C           4.1529    9.4600    8.1722 C.3     1  UNL1        0.0000
     39 H           3.4729    9.5457    9.0126 H       1  UNL1        0.0000
     40 H           4.9862    8.8426    8.4988 H       1  UNL1        0.0000
     41 H           3.6389    8.9073    7.3907 H       1  UNL1        0.0000
     42 C           5.9289   10.5345    6.0568 C.3     1  UNL1        0.0000
     43 H           5.6037    9.5597    5.7121 H       1  UNL1        0.0000
     44 H           6.9704   10.4373    6.3404 H       1  UNL1        0.0000
     45 H           5.8672   11.2164    5.2158 H       1  UNL1        0.0000
     46 C           5.9552   11.7834    8.9631 C.3     1  UNL1        0.0000
     47 H           6.2584   12.8082    8.7790 H       1  UNL1        0.0000
     48 H           6.8517   11.1843    9.0884 H       1  UNL1        0.0000
     49 H           5.4224   11.7668    9.9090 H       1  UNL1        0.0000
     50 C           7.5431   13.4834    5.8909 C.3     1  UNL1        0.0000
     51 H           7.4247   12.7257    6.6526 H       1  UNL1        0.0000
     52 H           8.6043   13.6084    5.7046 H       1  UNL1        0.0000
     53 H           7.0774   13.1241    4.9810 H       1  UNL1        0.0000
     54 C           7.3795   16.4359    5.1612 C.3     1  UNL1        0.0000
     55 H           6.7575   16.4698    4.2750 H       1  UNL1        0.0000
     56 H           8.3833   16.1729    4.8419 H       1  UNL1        0.0000
     57 H           7.4307   17.4345    5.5836 H       1  UNL1        0.0000
     58 C           7.3410   15.5964    8.1492 C.3     1  UNL1        0.0000
     59 H           7.5932   16.6490    8.2277 H       1  UNL1        0.0000
     60 H           8.2307   15.0341    8.4129 H       1  UNL1        0.0000
     61 H           6.5864   15.3815    8.8992 H       1  UNL1        0.0000
@<TRIPOS>BOND
     1    55    54    1
     2    56    54    1
     3    53    50    1
     4    54    57    1
     5    54     4    1
     6    45    42    1
     7    52    50    1
     8    43    42    1
     9    50     4    1
    10    50    51    1
    11    11    10    1
    12    42    44    1
    13    42     5    1
    14    14    13    1
    15     4     1    1
    16     4    58    1
    17     1     6    1
    18    15    13    1
    19    37    34    1
    20    13    10    1
    21    13    16    1
    22     2     5    1
    23     2     9    1
    24    10    12    1
    25    10     3    1
    26     6     7    1
    27     6     3    1
    28    36    34    1
    29    31    30    1
    30    41    38    1
    31    34    35    1
    32    34    25    1
    33     5    38    1
    34     5    46    1
    35     9     7    2
    36     9    25    1
    37     7     8    1
    38     3    22    1
    39    58    59    1
    40    58    60    1
    41    58    61    1
    42    38    40    1
    43    38    39    1
    44    18    16    1
    45    25    30    1
    46    25    26    1
    47    30    33    1
    48    30    32    1
    49    16    17    1
    50    16    19    1
    51    20    19    1
    52    47    46    1
    53    19    22    1
    54    19    21    1
    55    46    48    1
    56    46    49    1
    57    22    24    1
    58    22    23    1
    59    26    29    1
    60    26    27    1
    61    26    28    1
