@<TRIPOS>MOLECULE
2,3
 39 40 0 0 0
SMALL
GASTEIGER

@<TRIPOS>ATOM
      1 SI         -0.8861    1.6792    7.8380 Si      1  UNL1        0.0000
      2 N           0.0146   -0.8758    4.5825 N.pl3   1  UNL1        0.0000
      3 N          -0.2820    0.5610    6.6820 N.pl3   1  UNL1        0.0000
      4 C           0.1077   -1.6130    3.4822 C.2     1  UNL1        0.0000
      5 H          -0.6413   -1.4268    2.7252 H       1  UNL1        0.0000
      6 C           1.1029   -2.5709    3.2927 C.2     1  UNL1        0.0000
      7 H           1.1236   -3.1303    2.3698 H       1  UNL1        0.0000
      8 C           2.0366   -2.7965    4.2750 C.2     1  UNL1        0.0000
      9 H           2.8137   -3.5357    4.1547 H       1  UNL1        0.0000
     10 C           1.9601   -2.0479    5.4719 C.2     1  UNL1        0.0000
     11 C           2.8354   -2.1982    6.5610 C.2     1  UNL1        0.0000
     12 H           3.6365   -2.9184    6.4961 H       1  UNL1        0.0000
     13 C           2.6599   -1.4386    7.6968 C.2     1  UNL1        0.0000
     14 H           3.3327   -1.5710    8.5324 H       1  UNL1        0.0000
     15 C           1.6368   -0.5044    7.8028 C.2     1  UNL1        0.0000
     16 H           1.5128    0.0687    8.7077 H       1  UNL1        0.0000
     17 C           0.7530   -0.3011    6.7438 C.2     1  UNL1        0.0000
     18 C           0.9207   -1.0934    5.5706 C.3     1  UNL1        0.0000
     19 C          -2.5692    2.0532    6.9870 C.3     1  UNL1        0.0000
     20 H          -3.3344    1.3593    7.3232 H       1  UNL1        0.0000
     21 H          -2.4630    1.9385    5.8952 H       1  UNL1        0.0000
     22 H          -2.9346    3.0566    7.1769 H       1  UNL1        0.0000
     23 C          -1.2097    1.0002    9.5976 C.3     1  UNL1        0.0000
     24 H          -1.5554   -0.0278    9.5580 H       1  UNL1        0.0000
     25 H          -1.9693    1.5841   10.1072 H       1  UNL1        0.0000
     26 H          -0.3147    1.0196   10.2103 H       1  UNL1        0.0000
     27 C           0.1527    3.3141    7.9277 C.3     1  UNL1        0.0000
     28 C           0.2758    3.9199    6.5280 C.3     1  UNL1        0.0000
     29 H           0.8591    4.8407    6.5599 H       1  UNL1        0.0000
     30 H          -0.7046    4.1544    6.1182 H       1  UNL1        0.0000
     31 H           0.7785    3.2235    5.8581 H       1  UNL1        0.0000
     32 C           1.5608    3.0389    8.4555 C.3     1  UNL1        0.0000
     33 H           2.1418    3.9608    8.4921 H       1  UNL1        0.0000
     34 H           2.0814    2.3327    7.8129 H       1  UNL1        0.0000
     35 H           1.5245    2.6264    9.4613 H       1  UNL1        0.0000
     36 C          -0.5253    4.3285    8.8494 C.3     1  UNL1        0.0000
     37 H           0.0534    5.2514    8.8907 H       1  UNL1        0.0000
     38 H          -0.6080    3.9362    9.8598 H       1  UNL1        0.0000
     39 H          -1.5241    4.5722    8.4953 H       1  UNL1        0.0000
@<TRIPOS>BOND
     1     7     6    1
     2     5     4    1
     3     6     4    2
     4     6     8    1
     5     4     2    1
     6     9     8    1
     7     8    10    2
     8     2    18    1
     9    10    18    1
    10    10    11    1
    11    18    17    1
    12    31    28    1
    13    21    19    1
    14    30    28    1
    15    12    11    1
    16    28    29    1
    17    28    27    1
    18    11    13    2
    19     3    17    1
    20     3     1    1
    21    17    15    2
    22    19    22    1
    23    19    20    1
    24    19     1    1
    25    13    15    1
    26    13    14    1
    27    15    16    1
    28    34    32    1
    29     1    27    1
    30     1    23    1
    31    27    32    1
    32    27    36    1
    33    32    33    1
    34    32    35    1
    35    39    36    1
    36    36    37    1
    37    36    38    1
    38    24    23    1
    39    23    25    1
    40    23    26    1
