@<TRIPOS>MOLECULE
2,3
 39 40 0 0 0
SMALL
GASTEIGER

@<TRIPOS>ATOM
      1 SI         -1.7057    1.6792    2.1369 Si      1  UNL1        0.0000
      2 N          -2.6064   -0.8757    5.3925 N.pl3   1  UNL1        0.0000
      3 N          -2.3098    0.5610    3.2930 N.pl3   1  UNL1        0.0000
      4 C          -2.6995   -1.6129    6.4928 C.2     1  UNL1        0.0000
      5 H          -1.9505   -1.4268    7.2497 H       1  UNL1        0.0000
      6 C          -3.6947   -2.5709    6.6823 C.2     1  UNL1        0.0000
      7 H          -3.7153   -3.1303    7.6052 H       1  UNL1        0.0000
      8 C          -4.6284   -2.7965    5.7000 C.2     1  UNL1        0.0000
      9 H          -5.4055   -3.5356    5.8203 H       1  UNL1        0.0000
     10 C          -4.5518   -2.0479    4.5031 C.2     1  UNL1        0.0000
     11 C          -5.4271   -2.1982    3.4140 C.3     1  UNL1        0.0000
     12 H          -6.2283   -2.9184    3.4789 H       1  UNL1        0.0000
     13 C          -5.2517   -1.4386    2.2782 C.2     1  UNL1        0.0000
     14 H          -5.9245   -1.5710    1.4426 H       1  UNL1        0.0000
     15 C          -4.2286   -0.5044    2.1721 C.2     1  UNL1        0.0000
     16 H          -4.1046    0.0687    1.2673 H       1  UNL1        0.0000
     17 C          -3.3448   -0.3011    3.2312 C.2     1  UNL1        0.0000
     18 C          -3.5125   -1.0934    4.4044 C.2     1  UNL1        0.0000
     19 C          -0.0226    2.0532    2.9880 C.3     1  UNL1        0.0000
     20 H           0.7426    1.3593    2.6518 H       1  UNL1        0.0000
     21 H          -0.1288    1.9385    4.0798 H       1  UNL1        0.0000
     22 H           0.3428    3.0566    2.7980 H       1  UNL1        0.0000
     23 C          -1.3821    1.0002    0.3774 C.3     1  UNL1        0.0000
     24 H          -1.0364   -0.0278    0.4169 H       1  UNL1        0.0000
     25 H          -0.6225    1.5841   -0.1322 H       1  UNL1        0.0000
     26 H          -2.2771    1.0196   -0.2353 H       1  UNL1        0.0000
     27 C          -2.7445    3.3141    2.0473 C.3     1  UNL1        0.0000
     28 C          -2.8676    3.9199    3.4470 C.3     1  UNL1        0.0000
     29 H          -3.4508    4.8407    3.4151 H       1  UNL1        0.0000
     30 H          -1.8871    4.1544    3.8568 H       1  UNL1        0.0000
     31 H          -3.3703    3.2235    4.1169 H       1  UNL1        0.0000
     32 C          -4.1526    3.0389    1.5195 C.3     1  UNL1        0.0000
     33 H          -4.7336    3.9608    1.4829 H       1  UNL1        0.0000
     34 H          -4.6732    2.3327    2.1621 H       1  UNL1        0.0000
     35 H          -4.1163    2.6264    0.5137 H       1  UNL1        0.0000
     36 C          -2.0665    4.3285    1.1256 C.3     1  UNL1        0.0000
     37 H          -2.6452    5.2514    1.0843 H       1  UNL1        0.0000
     38 H          -1.9838    3.9362    0.1152 H       1  UNL1        0.0000
     39 H          -1.0677    4.5722    1.4797 H       1  UNL1        0.0000
@<TRIPOS>BOND
     1    26    23    1
     2    25    23    1
     3    38    36    1
     4    23    24    1
     5    23     1    1
     6    35    32    1
     7    37    36    1
     8    36    39    1
     9    36    27    1
    10    16    15    1
    11    14    13    1
    12    33    32    1
    13    32    27    1
    14    32    34    1
    15    27     1    1
    16    27    28    1
    17     1    19    1
    18     1     3    1
    19    15    13    2
    20    15    17    1
    21    13    11    1
    22    20    19    1
    23    22    19    1
    24    19    21    1
    25    17     3    1
    26    17    18    2
    27    11    12    1
    28    11    10    1
    29    29    28    1
    30    28    30    1
    31    28    31    1
    32    18    10    1
    33    18     2    1
    34    10     8    2
    35     2     4    1
    36     8     9    1
    37     8     6    1
    38     4     6    2
    39     4     5    1
    40     6     7    1
