@<TRIPOS>MOLECULE
2,3
 39 40 0 0 0
SMALL
GASTEIGER

@<TRIPOS>ATOM
      1 SI         -0.8130    6.4807    7.6444 Si      1  UNL1        0.0000
      2 N           0.0143    8.9920    4.4106 N.pl3   1  UNL1        0.0000
      3 N          -0.1503    7.5816    6.5190 N.pl3   1  UNL1        0.0000
      4 C           0.0346    9.6898    3.2927 C.2     1  UNL1        0.0000
      5 H          -0.7340    9.4554    2.5743 H       1  UNL1        0.0000
      6 C           0.9878   10.6826    3.0423 C.2     1  UNL1        0.0000
      7 H           0.9577   11.2160    2.1047 H       1  UNL1        0.0000
      8 C           1.9358   10.9710    3.9902 C.2     1  UNL1        0.0000
      9 H           2.6767   11.7396    3.8257 H       1  UNL1        0.0000
     10 C           1.9349   10.2546    5.2070 C.2     1  UNL1        0.0000
     11 C           2.8379   10.4599    6.2622 C.2     1  UNL1        0.0000
     12 H           3.6097   11.2071    6.1593 H       1  UNL1        0.0000
     13 C           2.7279    9.7106    7.4142 C.2     1  UNL1        0.0000
     14 H           3.4233    9.8842    8.2236 H       1  UNL1        0.0000
     15 C           1.7509    8.7358    7.5730 C.2     1  UNL1        0.0000
     16 H           1.6862    8.1683    8.4873 H       1  UNL1        0.0000
     17 C           0.8417    8.4771    6.5483 C.2     1  UNL1        0.0000
     18 C           0.9373    9.2596    5.3586 C.3     1  UNL1        0.0000
     19 C          -2.4782    6.1420    6.7626 C.3     1  UNL1        0.0000
     20 H          -3.2149    6.8889    7.0358 H       1  UNL1        0.0000
     21 H          -2.8955    5.1691    6.9937 H       1  UNL1        0.0000
     22 H          -2.3479    6.1897    5.6730 H       1  UNL1        0.0000
     23 C          -1.1530    7.1638    9.3996 C.3     1  UNL1        0.0000
     24 H          -1.5772    8.1613    9.3496 H       1  UNL1        0.0000
     25 H          -0.2463    7.2254    9.9920 H       1  UNL1        0.0000
     26 H          -1.8555    6.5363    9.9385 H       1  UNL1        0.0000
     27 C           0.2077    4.8423    7.7729 C.3     1  UNL1        0.0000
     28 C           0.3652    4.2343    6.3794 C.3     1  UNL1        0.0000
     29 H           0.9352    3.3056    6.4265 H       1  UNL1        0.0000
     30 H           0.8940    4.9253    5.7265 H       1  UNL1        0.0000
     31 H          -0.6058    4.0151    5.9409 H       1  UNL1        0.0000
     32 C           1.6007    5.1179    8.3378 C.3     1  UNL1        0.0000
     33 H           2.1831    4.1975    8.3892 H       1  UNL1        0.0000
     34 H           1.5373    5.5311    9.3417 H       1  UNL1        0.0000
     35 H           2.1348    5.8251    7.7079 H       1  UNL1        0.0000
     36 C          -0.4983    3.8325    8.6777 C.3     1  UNL1        0.0000
     37 H           0.0729    2.9055    8.7336 H       1  UNL1        0.0000
     38 H          -1.4891    3.5954    8.2978 H       1  UNL1        0.0000
     39 H          -0.6036    4.2249    9.6859 H       1  UNL1        0.0000
@<TRIPOS>BOND
     1     7     6    1
     2     5     4    1
     3     6     4    2
     4     6     8    1
     5     4     2    1
     6     9     8    1
     7     8    10    2
     8     2    18    1
     9    10    18    1
    10    10    11    1
    11    18    17    1
    12    22    19    1
    13    30    28    1
    14    31    28    1
    15    12    11    1
    16    11    13    2
    17    28    29    1
    18    28    27    1
    19     3    17    1
    20     3     1    1
    21    17    15    2
    22    19    21    1
    23    19    20    1
    24    19     1    1
    25    13    15    1
    26    13    14    1
    27    15    16    1
    28     1    27    1
    29     1    23    1
    30    35    32    1
    31    27    32    1
    32    27    36    1
    33    38    36    1
    34    32    33    1
    35    32    34    1
    36    36    37    1
    37    36    39    1
    38    24    23    1
    39    23    26    1
    40    23    25    1
