@<TRIPOS>MOLECULE
2,3
 39 40 0 0 0
SMALL
GASTEIGER

@<TRIPOS>ATOM
      1 SI         -1.5849    6.4807    2.1163 Si      1  UNL1        0.0000
      2 N          -2.4120    8.9920    5.3501 N.pl3   1  UNL1        0.0000
      3 N          -2.2475    7.5816    3.2417 N.pl3   1  UNL1        0.0000
      4 C          -2.4324    9.6898    6.4680 C.2     1  UNL1        0.0000
      5 H          -1.6638    9.4554    7.1864 H       1  UNL1        0.0000
      6 C          -3.3856   10.6825    6.7184 C.2     1  UNL1        0.0000
      7 H          -3.3555   11.2160    7.6559 H       1  UNL1        0.0000
      8 C          -4.3337   10.9709    5.7705 C.2     1  UNL1        0.0000
      9 H          -5.0745   11.7395    5.9350 H       1  UNL1        0.0000
     10 C          -4.3328   10.2546    4.5537 C.2     1  UNL1        0.0000
     11 C          -5.2357   10.4598    3.4986 C.3     1  UNL1        0.0000
     12 H          -6.0075   11.2070    3.6014 H       1  UNL1        0.0000
     13 C          -5.1258    9.7106    2.3465 C.2     1  UNL1        0.0000
     14 H          -5.8211    9.8842    1.5371 H       1  UNL1        0.0000
     15 C          -4.1487    8.7358    2.1877 C.2     1  UNL1        0.0000
     16 H          -4.0840    8.1683    1.2734 H       1  UNL1        0.0000
     17 C          -3.2396    8.4771    3.2124 C.2     1  UNL1        0.0000
     18 C          -3.3352    9.2596    4.4021 C.2     1  UNL1        0.0000
     19 C           0.0804    6.1420    2.9981 C.3     1  UNL1        0.0000
     20 H           0.8171    6.8889    2.7249 H       1  UNL1        0.0000
     21 H           0.4977    5.1690    2.7670 H       1  UNL1        0.0000
     22 H          -0.0499    6.1897    4.0877 H       1  UNL1        0.0000
     23 C          -1.2447    7.1637    0.3611 C.3     1  UNL1        0.0000
     24 H          -0.8202    8.1612    0.4112 H       1  UNL1        0.0000
     25 H          -2.1515    7.2258   -0.2312 H       1  UNL1        0.0000
     26 H          -0.5425    6.5360   -0.1779 H       1  UNL1        0.0000
     27 C          -2.6055    4.8423    1.9877 C.3     1  UNL1        0.0000
     28 C          -2.7630    4.2343    3.3813 C.3     1  UNL1        0.0000
     29 H          -3.3330    3.3056    3.3341 H       1  UNL1        0.0000
     30 H          -3.2918    4.9254    4.0342 H       1  UNL1        0.0000
     31 H          -1.7920    4.0151    3.8198 H       1  UNL1        0.0000
     32 C          -3.9986    5.1179    1.4229 C.3     1  UNL1        0.0000
     33 H          -4.5809    4.1974    1.3715 H       1  UNL1        0.0000
     34 H          -3.9351    5.5311    0.4189 H       1  UNL1        0.0000
     35 H          -4.5326    5.8251    2.0527 H       1  UNL1        0.0000
     36 C          -1.8996    3.8325    1.0829 C.3     1  UNL1        0.0000
     37 H          -2.4707    2.9055    1.0271 H       1  UNL1        0.0000
     38 H          -0.9088    3.5954    1.4629 H       1  UNL1        0.0000
     39 H          -1.7942    4.2249    0.0747 H       1  UNL1        0.0000
@<TRIPOS>BOND
     1    25    23    1
     2    26    23    1
     3    39    36    1
     4    23    24    1
     5    23     1    1
     6    34    32    1
     7    37    36    1
     8    36    38    1
     9    36    27    1
    10    16    15    1
    11    33    32    1
    12    32    27    1
    13    32    35    1
    14    14    13    1
    15    27     1    1
    16    27    28    1
    17     1    19    1
    18     1     3    1
    19    15    13    2
    20    15    17    1
    21    13    11    1
    22    20    19    1
    23    21    19    1
    24    19    22    1
    25    17     3    1
    26    17    18    2
    27    29    28    1
    28    28    31    1
    29    28    30    1
    30    11    12    1
    31    11    10    1
    32    18    10    1
    33    18     2    1
    34    10     8    2
    35     2     4    1
    36     8     9    1
    37     8     6    1
    38     4     6    2
    39     4     5    1
    40     6     7    1
