@<TRIPOS>MOLECULE
2,3
 48 49 0 0 0
SMALL
GASTEIGER

@<TRIPOS>ATOM
      1 SI          3.3432    2.2947    0.6647 Si      1  UNL1        0.0000
      2 N           2.6114    4.1132    4.4185 N.pl3   1  UNL1        0.0000
      3 N           3.3309    2.9795    2.2378 N.pl3   1  UNL1        0.0000
      4 C           2.2041    4.7736    5.4861 C.2     1  UNL1        0.0000
      5 H           1.2320    5.2337    5.4167 H       1  UNL1        0.0000
      6 C           2.9751    4.8816    6.6477 C.2     1  UNL1        0.0000
      7 H           2.5801    5.4256    7.4916 H       1  UNL1        0.0000
      8 C           4.2168    4.3022    6.6942 C.2     1  UNL1        0.0000
      9 H           4.8357    4.3725    7.5765 H       1  UNL1        0.0000
     10 C           4.7002    3.6157    5.5592 C.2     1  UNL1        0.0000
     11 C           5.9599    3.0024    5.4736 C.2     1  UNL1        0.0000
     12 H           6.6200    3.0279    6.3268 H       1  UNL1        0.0000
     13 C           6.3379    2.3804    4.3039 C.2     1  UNL1        0.0000
     14 H           7.3119    1.9153    4.2437 H       1  UNL1        0.0000
     15 C           5.5088    2.3352    3.1898 C.2     1  UNL1        0.0000
     16 H           5.8416    1.8512    2.2868 H       1  UNL1        0.0000
     17 C           4.2416    2.9150    3.2224 C.2     1  UNL1        0.0000
     18 C           3.8414    3.5567    4.4326 C.3     1  UNL1        0.0000
     19 C           1.7659    3.1625   -0.0329 C.3     1  UNL1        0.0000
     20 H           1.1167    3.3509    0.8495 H       1  UNL1        0.0000
     21 C           0.9837    2.3060   -1.0203 C.3     1  UNL1        0.0000
     22 H           0.0996    2.8343   -1.3771 H       1  UNL1        0.0000
     23 H           0.6601    1.3718   -0.5709 H       1  UNL1        0.0000
     24 H           1.6034    2.0689   -1.8824 H       1  UNL1        0.0000
     25 C           2.0393    4.5217   -0.6653 C.3     1  UNL1        0.0000
     26 H           1.1048    5.0256   -0.9144 H       1  UNL1        0.0000
     27 H           2.6091    4.4095   -1.5844 H       1  UNL1        0.0000
     28 H           2.5960    5.1580    0.0144 H       1  UNL1        0.0000
     29 C           3.0355    0.3817    0.7230 C.3     1  UNL1        0.0000
     30 H           2.6795    0.0432   -0.2551 H       1  UNL1        0.0000
     31 C           1.9534    0.0609    1.7495 C.3     1  UNL1        0.0000
     32 H           1.7806   -1.0139    1.8104 H       1  UNL1        0.0000
     33 H           1.0161    0.5417    1.4856 H       1  UNL1        0.0000
     34 H           2.2570    0.4167    2.7322 H       1  UNL1        0.0000
     35 C           4.2853   -0.4309    1.0528 C.3     1  UNL1        0.0000
     36 H           4.0529   -1.4960    1.0652 H       1  UNL1        0.0000
     37 H           4.6659   -0.1587    2.0339 H       1  UNL1        0.0000
     38 H           5.0689   -0.2694    0.3175 H       1  UNL1        0.0000
     39 C           4.9502    2.5621   -0.3770 C.3     1  UNL1        0.0000
     40 H           5.6964    1.8567    0.0019 H       1  UNL1        0.0000
     41 C           5.5534    3.9540   -0.2140 C.3     1  UNL1        0.0000
     42 H           6.4839    4.0334   -0.7766 H       1  UNL1        0.0000
     43 H           5.7740    4.1477    0.8329 H       1  UNL1        0.0000
     44 H           4.8748    4.7219   -0.5730 H       1  UNL1        0.0000
     45 C           4.7513    2.2344   -1.8560 C.3     1  UNL1        0.0000
     46 H           5.6990    2.2949   -2.3909 H       1  UNL1        0.0000
     47 H           4.0613    2.9336   -2.3203 H       1  UNL1        0.0000
     48 H           4.3560    1.2290   -1.9791 H       1  UNL1        0.0000
@<TRIPOS>BOND
     1    46    45    1
     2    47    45    1
     3    48    45    1
     4    24    21    1
     5    45    39    1
     6    27    25    1
     7    22    21    1
     8    21    23    1
     9    21    19    1
    10    26    25    1
    11    42    41    1
    12    25    19    1
    13    25    28    1
    14    44    41    1
    15    39    41    1
    16    39    40    1
    17    39     1    1
    18    30    29    1
    19    41    43    1
    20    19     1    1
    21    19    20    1
    22    38    35    1
    23     1    29    1
    24     1     3    1
    25    29    35    1
    26    29    31    1
    27    35    36    1
    28    35    37    1
    29    33    31    1
    30    31    32    1
    31    31    34    1
    32     3    17    1
    33    16    15    1
    34    15    17    2
    35    15    13    1
    36    17    18    1
    37    14    13    1
    38    13    11    2
    39     2    18    1
    40     2     4    1
    41    18    10    1
    42     5     4    1
    43    11    10    1
    44    11    12    1
    45     4     6    2
    46    10     8    2
    47     6     8    1
    48     6     7    1
    49     8     9    1
