@<TRIPOS>MOLECULE
2,3
 48 49 0 0 0
SMALL
GASTEIGER

@<TRIPOS>ATOM
      1 SI         -1.3481    3.7944    3.6135 Si      1  UNL1        0.0000
      2 N           2.2537    5.7064    2.4582 N.pl3   1  UNL1        0.0000
      3 N           0.0011    4.8022    3.2672 N.pl3   1  UNL1        0.0000
      4 C           3.4618    6.1087    2.1114 C.2     1  UNL1        0.0000
      5 H           4.2035    5.3360    1.9916 H       1  UNL1        0.0000
      6 C           3.7798    7.4551    1.9069 C.2     1  UNL1        0.0000
      7 H           4.7842    7.7189    1.6138 H       1  UNL1        0.0000
      8 C           2.8163    8.4145    2.0832 C.2     1  UNL1        0.0000
      9 H           3.0342    9.4617    1.9330 H       1  UNL1        0.0000
     10 C           1.5195    8.0245    2.4823 C.2     1  UNL1        0.0000
     11 C           0.4521    8.9075    2.7078 C.2     1  UNL1        0.0000
     12 H           0.6013    9.9662    2.5627 H       1  UNL1        0.0000
     13 C          -0.7706    8.4127    3.1070 C.2     1  UNL1        0.0000
     14 H          -1.5876    9.0999    3.2770 H       1  UNL1        0.0000
     15 C          -0.9902    7.0555    3.3058 C.2     1  UNL1        0.0000
     16 H          -1.9577    6.7039    3.6249 H       1  UNL1        0.0000
     17 C           0.0339    6.1323    3.0961 C.2     1  UNL1        0.0000
     18 C           1.2973    6.6361    2.6646 C.3     1  UNL1        0.0000
     19 C          -2.3634    4.2515    5.1979 C.3     1  UNL1        0.0000
     20 H          -3.1146    4.9858    4.8844 H       1  UNL1        0.0000
     21 C          -1.5010    4.9218    6.2644 C.3     1  UNL1        0.0000
     22 H          -2.1138    5.2362    7.1092 H       1  UNL1        0.0000
     23 H          -1.0060    5.8000    5.8578 H       1  UNL1        0.0000
     24 H          -0.7431    4.2357    6.6331 H       1  UNL1        0.0000
     25 C          -3.1248    3.0802    5.8175 C.3     1  UNL1        0.0000
     26 H          -3.7800    3.4346    6.6132 H       1  UNL1        0.0000
     27 H          -2.4383    2.3588    6.2514 H       1  UNL1        0.0000
     28 H          -3.7354    2.5688    5.0789 H       1  UNL1        0.0000
     29 C          -2.5730    3.9720    2.1227 C.3     1  UNL1        0.0000
     30 H          -2.8768    5.0245    2.1124 H       1  UNL1        0.0000
     31 C          -1.8549    3.7171    0.8012 C.3     1  UNL1        0.0000
     32 H          -2.5109    3.9262   -0.0440 H       1  UNL1        0.0000
     33 H          -1.5308    2.6820    0.7279 H       1  UNL1        0.0000
     34 H          -0.9806    4.3600    0.7265 H       1  UNL1        0.0000
     35 C          -3.8534    3.1453    2.2026 C.3     1  UNL1        0.0000
     36 H          -4.4780    3.3310    1.3285 H       1  UNL1        0.0000
     37 H          -4.4287    3.4103    3.0855 H       1  UNL1        0.0000
     38 H          -3.6358    2.0815    2.2384 H       1  UNL1        0.0000
     39 C          -0.3987    2.1185    3.6973 C.3     1  UNL1        0.0000
     40 H           0.4392    2.2220    2.9767 H       1  UNL1        0.0000
     41 C           0.2400    1.8557    5.0572 C.3     1  UNL1        0.0000
     42 H           0.9108    0.9980    5.0049 H       1  UNL1        0.0000
     43 H          -0.5183    1.6365    5.8043 H       1  UNL1        0.0000
     44 H           0.8129    2.7166    5.3846 H       1  UNL1        0.0000
     45 C          -1.2276    0.9075    3.2913 C.3     1  UNL1        0.0000
     46 H          -0.6397   -0.0075    3.3633 H       1  UNL1        0.0000
     47 H          -1.5867    0.9974    2.2696 H       1  UNL1        0.0000
     48 H          -2.0887    0.8046    3.9480 H       1  UNL1        0.0000
@<TRIPOS>BOND
     1    32    31    1
     2    34    31    1
     3    33    31    1
     4    31    29    1
     5    36    35    1
     6     7     6    1
     7     6     8    1
     8     6     4    2
     9     9     8    1
    10     5     4    1
    11     8    10    2
    12     4     2    1
    13    30    29    1
    14    29    35    1
    15    29     1    1
    16    35    38    1
    17    35    37    1
    18    47    45    1
    19     2    18    1
    20    10    18    1
    21    10    11    1
    22    12    11    1
    23    18    17    1
    24    11    13    2
    25    40    39    1
    26    17     3    1
    27    17    15    2
    28    13    14    1
    29    13    15    1
    30     3     1    1
    31    45    46    1
    32    45    39    1
    33    45    48    1
    34    15    16    1
    35     1    39    1
    36     1    19    1
    37    39    41    1
    38    20    19    1
    39    42    41    1
    40    41    44    1
    41    41    43    1
    42    28    25    1
    43    19    25    1
    44    19    21    1
    45    25    27    1
    46    25    26    1
    47    23    21    1
    48    21    24    1
    49    21    22    1
