@<TRIPOS>MOLECULE
8,9
 31 32 0 0 0
SMALL
GASTEIGER

@<TRIPOS>ATOM
      1 SI          4.8414    5.8453    1.5576 Si      1  UNL1        0.0000
      2 CL          5.4425    6.5162   -0.2824 Cl      1  UNL1        0.0000
      3 O           5.4232    6.8684    2.6761 O.3     1  UNL1        0.0000
      4 C           2.9067    5.7915    1.5688 C.3     1  UNL1        0.0000
      5 H           2.4835    5.6231    0.5797 H       1  UNL1        0.0000
      6 H           2.4464    6.6822    1.9898 H       1  UNL1        0.0000
      7 H           2.5915    4.9226    2.2160 H       1  UNL1        0.0000
      8 N           3.5567    2.4484    1.0574 N.pl3   1  UNL1        0.0000
      9 N           5.3055    4.2637    1.9303 N.pl3   1  UNL1        0.0000
     10 C           2.6450    1.6067    0.6139 C.2     1  UNL1        0.0000
     11 H           1.6621    1.6589    1.0663 H       1  UNL1        0.0000
     12 C           2.9050    0.6702   -0.3931 C.2     1  UNL1        0.0000
     13 H           2.1179   -0.0001   -0.7003 H       1  UNL1        0.0000
     14 C           4.1522    0.6123   -0.9562 C.2     1  UNL1        0.0000
     15 H           4.3891   -0.1132   -1.7205 H       1  UNL1        0.0000
     16 C           5.1451    1.5168   -0.5297 C.2     1  UNL1        0.0000
     17 C           6.4435    1.5718   -1.0659 C.3     1  UNL1        0.0000
     18 H           6.7172    0.8741   -1.8426 H       1  UNL1        0.0000
     19 C           7.3366    2.5091   -0.6097 C.2     1  UNL1        0.0000
     20 H           8.3299    2.5521   -1.0323 H       1  UNL1        0.0000
     21 C           6.9899    3.4219    0.3849 C.2     1  UNL1        0.0000
     22 H           7.6954    4.1679    0.7177 H       1  UNL1        0.0000
     23 C           5.7348    3.3901    0.9669 C.2     1  UNL1        0.0000
     24 C           4.7942    2.4228    0.5052 C.2     1  UNL1        0.0000
     25 C           5.6034    8.2600    2.5913 C.3     1  UNL1        0.0000
     26 H           4.7850    8.7408    3.1391 H       1  UNL1        0.0000
     27 H           5.5599    8.5748    1.5438 H       1  UNL1        0.0000
     28 C           6.9460    8.6364    3.1963 C.3     1  UNL1        0.0000
     29 H           7.0827    9.7132    3.1494 H       1  UNL1        0.0000
     30 H           7.7466    8.1516    2.6438 H       1  UNL1        0.0000
     31 H           6.9902    8.3127    4.2325 H       1  UNL1        0.0000
@<TRIPOS>BOND
     1    18    17    1
     2    15    14    1
     3    17    19    1
     4    17    16    1
     5    20    19    1
     6    14    16    2
     7    14    12    1
     8    13    12    1
     9    19    21    2
    10    16    24    1
    11    12    10    2
    12     2     1    1
    13    21    22    1
    14    21    23    1
    15    24    23    2
    16    24     8    1
    17     5     4    1
    18    10     8    1
    19    10    11    1
    20    23     9    1
    21    27    25    1
    22     1     4    1
    23     1     9    1
    24     1     3    1
    25     4     6    1
    26     4     7    1
    27    25     3    1
    28    25    26    1
    29    25    28    1
    30    30    28    1
    31    29    28    1
    32    28    31    1
