@<TRIPOS>MOLECULE
1,2
 19 20 0 0 0
SMALL
GASTEIGER

@<TRIPOS>ATOM
      1 N          -2.0220    1.2267    0.9413 N.pl3   1  UNL1       -0.2205
      2 N          -2.7961    3.6806    1.7519 N.pl3   1  UNL1       -0.3565
      3 H          -3.3331    4.3237    2.3387 H       1  UNL1        0.1424
      4 H          -2.1289    4.2279    1.1711 H       1  UNL1        0.1424
      5 C          -1.5644    0.0806    0.4816 C.2     1  UNL1        0.0174
      6 H          -0.6421   -0.2929    0.9087 H       1  UNL1        0.0802
      7 C          -2.2200   -0.6704   -0.5010 C.2     1  UNL1       -0.0457
      8 H          -1.7784   -1.5972   -0.8306 H       1  UNL1        0.0631
      9 C          -3.4208   -0.2382   -0.9963 C.2     1  UNL1       -0.0549
     10 H          -3.9739   -0.8146   -1.7221 H       1  UNL1        0.0621
     11 C          -3.9468    0.9834   -0.5291 C.2     1  UNL1       -0.0149
     12 C          -5.1963    1.4964   -0.9299 C.3     1  UNL1        0.0147
     13 H          -5.7803    0.9344   -1.6427 H       1  UNL1        0.0401
     14 C          -5.6673    2.6698   -0.4071 C.2     1  UNL1       -0.0739
     15 H          -6.6369    3.0440   -0.6980 H       1  UNL1        0.0579
     16 C          -4.8950    3.4105    0.4962 C.2     1  UNL1       -0.0425
     17 H          -5.2718    4.3437    0.8893 H       1  UNL1        0.0634
     18 C          -3.6613    2.9530    0.8903 C.2     1  UNL1        0.0478
     19 C          -3.1825    1.7082    0.4197 C.2     1  UNL1        0.0774
@<TRIPOS>BOND
     1    10     9    1
     2    13    12    1
     3     9    11    2
     4     9     7    1
     5    12    11    1
     6    12    14    1
     7     8     7    1
     8    15    14    1
     9    11    19    1
    10     7     5    2
    11    14    16    2
    12    19    18    2
    13    19     1    1
    14     5     6    1
    15     5     1    1
    16    16    17    1
    17    16    18    1
    18    18     2    1
    19     4     2    1
    20     2     3    1
