@<TRIPOS>MOLECULE
3,4
 50 51 0 0 0
SMALL
GASTEIGER

@<TRIPOS>ATOM
      1 O           2.5535   12.4973    5.1543 O.3     1  UNL1       -0.4951
      2 O           1.4970    1.0096    2.9953 O.3     1  UNL1       -0.4951
      3 N           1.6946    7.4314    1.5767 N.3     1  UNL1       -0.2307
      4 N           4.0938    6.7246    1.8579 N.3     1  UNL1       -0.2307
      5 C           2.0249    7.2853    2.9765 C.3     1  UNL1        0.0711
      6 H           1.2116    6.7770    3.5211 H       1  UNL1        0.0545
      7 C           2.2281    8.6490    3.6013 C.ar    1  UNL1       -0.0269
      8 C           1.1861    9.2641    4.2919 C.ar    1  UNL1       -0.0535
      9 H           0.2544    8.7362    4.4420 H       1  UNL1        0.0622
     10 C           1.3225   10.5399    4.7963 C.ar    1  UNL1       -0.0196
     11 H           0.5134   11.0217    5.3222 H       1  UNL1        0.0654
     12 C           2.5196   11.2378    4.6349 C.ar    1  UNL1        0.1201
     13 C           3.5759   10.6186    3.9775 C.ar    1  UNL1       -0.0196
     14 H           4.5249   11.1145    3.8515 H       1  UNL1        0.0654
     15 C           3.4194    9.3443    3.4597 C.ar    1  UNL1       -0.0535
     16 H           4.2570    8.8853    2.9533 H       1  UNL1        0.0622
     17 C           3.7311   13.2517    5.0011 C.3     1  UNL1        0.0788
     18 H           3.5218   14.2196    5.4543 H       1  UNL1        0.0660
     19 H           3.9847   13.3927    3.9455 H       1  UNL1        0.0660
     20 H           4.5773   12.7865    5.5172 H       1  UNL1        0.0660
     21 C           0.2723    7.4498    1.3267 C.3     1  UNL1        0.0119
     22 H           0.0953    7.9684    0.3810 H       1  UNL1        0.0438
     23 H          -0.2454    8.0062    2.1234 H       1  UNL1        0.0438
     24 C          -0.3184    6.0381    1.2321 C.3     1  UNL1       -0.0510
     25 H          -1.3939    6.0930    1.0814 H       1  UNL1        0.0242
     26 H          -0.1193    5.4698    2.1390 H       1  UNL1        0.0242
     27 H           0.1303    5.5180    0.3899 H       1  UNL1        0.0242
     28 C           3.2855    6.3954    3.0166 C.3     1  UNL1        0.0711
     29 H           3.8325    6.6004    3.9523 H       1  UNL1        0.0545
     30 C           2.8454    4.9427    3.0408 C.ar    1  UNL1       -0.0269
     31 C           2.5855    4.3004    4.2418 C.ar    1  UNL1       -0.0535
     32 H           2.7361    4.8278    5.1740 H       1  UNL1        0.0622
     33 C           2.1334    2.9912    4.2746 C.ar    1  UNL1       -0.0196
     34 H           1.9447    2.5269    5.2298 H       1  UNL1        0.0654
     35 C           1.9345    2.2972    3.0867 C.ar    1  UNL1        0.1201
     36 C           2.1967    2.9390    1.8745 C.ar    1  UNL1       -0.0196
     37 H           2.0421    2.3861    0.9612 H       1  UNL1        0.0654
     38 C           2.6438    4.2420    1.8570 C.ar    1  UNL1       -0.0535
     39 H           2.8540    4.7462    0.9165 H       1  UNL1        0.0622
     40 C           1.2259    0.3057    4.1819 C.3     1  UNL1        0.0788
     41 H           0.8966   -0.6838    3.8688 H       1  UNL1        0.0660
     42 H           0.4295    0.7840    4.7618 H       1  UNL1        0.0660
     43 H           2.1206    0.2077    4.8056 H       1  UNL1        0.0660
     44 C           5.4138    6.1341    1.9866 C.3     1  UNL1        0.0119
     45 H           5.8743    6.1036    0.9939 H       1  UNL1        0.0438
     46 H           5.3280    5.0956    2.3501 H       1  UNL1        0.0438
     47 C           6.3574    6.9016    2.9244 C.3     1  UNL1       -0.0510
     48 H           7.3316    6.4180    2.9341 H       1  UNL1        0.0242
     49 H           5.9777    6.9185    3.9440 H       1  UNL1        0.0242
     50 H           6.4815    7.9262    2.5791 H       1  UNL1        0.0242
@<TRIPOS>BOND
     1    22    21    1
     2    27    24    1
     3    39    38    1
     4    37    36    1
     5    45    44    1
     6    25    24    1
     7    24    21    1
     8    24    26    1
     9    21     3    1
    10    21    23    1
    11     3     5    1
    12    38    36   ar
    13    38    30   ar
    14     4    44    1
    15     4    28    1
    16    36    35   ar
    17    44    46    1
    18    44    47    1
    19    50    47    1
    20    47    48    1
    21    47    49    1
    22    16    15    1
    23     5    28    1
    24     5     6    1
    25     5     7    1
    26     2    35    1
    27     2    40    1
    28    28    30    1
    29    28    29    1
    30    30    31   ar
    31    35    33   ar
    32    15     7   ar
    33    15    13   ar
    34     7     8   ar
    35    14    13    1
    36    41    40    1
    37    19    17    1
    38    13    12   ar
    39    40    42    1
    40    40    43    1
    41    31    33   ar
    42    31    32    1
    43    33    34    1
    44     8     9    1
    45     8    10   ar
    46    12    10   ar
    47    12     1    1
    48    10    11    1
    49    17     1    1
    50    17    18    1
    51    17    20    1
