@<TRIPOS>MOLECULE
3,4
 38 38 0 0 0
SMALL
GASTEIGER

@<TRIPOS>ATOM
      1 SI          1.8111   10.6726   -0.3917 Si      1  UNL1        0.0000
      2 SI          5.8574    7.1574   -1.6803 Si      1  UNL1        0.0000
      3 N           3.0650    9.5630    0.0917 N.pl3   1  UNL1        0.0000
      4 N           4.9936    7.9010   -0.3652 N.pl3   1  UNL1        0.0000
      5 C           4.3125   10.0000    0.4735 C.ar    1  UNL1        0.0000
      6 C           5.3797    9.0914    0.2092 C.ar    1  UNL1        0.0000
      7 C           6.6847    9.4757    0.5117 C.ar    1  UNL1        0.0000
      8 H           7.4929    8.7883    0.3219 H       1  UNL1        0.0000
      9 C           6.9456   10.7177    1.0650 C.ar    1  UNL1        0.0000
     10 H           7.9627   10.9961    1.3001 H       1  UNL1        0.0000
     11 C           5.9082   11.6024    1.3147 C.ar    1  UNL1        0.0000
     12 H           6.1177   12.5737    1.7406 H       1  UNL1        0.0000
     13 C           4.6036   11.2494    1.0170 C.ar    1  UNL1        0.0000
     14 H           3.7939   11.9335    1.2195 H       1  UNL1        0.0000
     15 C           2.5545   12.1843   -1.3105 C.3     1  UNL1        0.0000
     16 H           2.6893   13.0378   -0.6538 H       1  UNL1        0.0000
     17 H           1.9054   12.5023   -2.1206 H       1  UNL1        0.0000
     18 H           3.5247   11.9438   -1.7368 H       1  UNL1        0.0000
     19 C           0.7969   11.2742    1.1230 C.3     1  UNL1        0.0000
     20 H           1.3816   11.9052    1.7863 H       1  UNL1        0.0000
     21 H           0.4449   10.4338    1.7147 H       1  UNL1        0.0000
     22 H          -0.0704   11.8467    0.8089 H       1  UNL1        0.0000
     23 C           0.6694    9.7448   -1.6114 C.3     1  UNL1        0.0000
     24 H           0.8892    8.6803   -1.6121 H       1  UNL1        0.0000
     25 H           0.7952   10.1083   -2.6262 H       1  UNL1        0.0000
     26 H          -0.3760    9.8769   -1.3520 H       1  UNL1        0.0000
     27 C           7.7693    7.0155   -1.5575 C.3     1  UNL1        0.0000
     28 H           8.0972    6.5804   -0.6173 H       1  UNL1        0.0000
     29 H           8.2590    7.9772   -1.6718 H       1  UNL1        0.0000
     30 H           8.1347    6.3744   -2.3541 H       1  UNL1        0.0000
     31 C           5.2010    5.3661   -1.8066 C.3     1  UNL1        0.0000
     32 H           6.0076    4.6398   -1.8190 H       1  UNL1        0.0000
     33 H           4.6274    5.2303   -2.7169 H       1  UNL1        0.0000
     34 H           4.5445    5.1318   -0.9695 H       1  UNL1        0.0000
     35 C           5.4660    8.2004   -3.2394 C.3     1  UNL1        0.0000
     36 H           6.0662    9.1059   -3.2685 H       1  UNL1        0.0000
     37 H           4.4204    8.4974   -3.2352 H       1  UNL1        0.0000
     38 H           5.6565    7.6469   -4.1531 H       1  UNL1        0.0000
@<TRIPOS>BOND
     1    38    35    1
     2    36    35    1
     3    35    37    1
     4    35     2    1
     5    33    31    1
     6    25    23    1
     7    30    27    1
     8    17    15    1
     9    32    31    1
    10    31     2    1
    11    31    34    1
    12    18    15    1
    13     2    27    1
    14     2     4    1
    15    29    27    1
    16    24    23    1
    17    23    26    1
    18    23     1    1
    19    27    28    1
    20    15    16    1
    21    15     1    1
    22     1     3    1
    23     1    19    1
    24     4     6    1
    25     3     5    1
    26     6     5   ar
    27     6     7   ar
    28     8     7    1
    29     5    13   ar
    30     7     9   ar
    31    22    19    1
    32    13    14    1
    33    13    11   ar
    34     9    10    1
    35     9    11   ar
    36    19    21    1
    37    19    20    1
    38    11    12    1
