@<TRIPOS>MOLECULE
3,4
 38 38 0 0 0
SMALL
GASTEIGER

@<TRIPOS>ATOM
      1 SI          3.0863   -3.0346    5.5201 Si      1  UNL1        0.0000
      2 SI         -1.4056    0.5905    5.8680 Si      1  UNL1        0.0000
      3 N           1.9611   -1.8402    4.9306 N.pl3   1  UNL1        0.0000
      4 N          -0.0880   -0.1825    5.0239 N.pl3   1  UNL1        0.0000
      5 C           0.9344   -2.1016    4.0599 C.ar    1  UNL1        0.0000
      6 C           0.8742   -3.1889    3.1828 C.ar    1  UNL1        0.0000
      7 H           1.7122   -3.8666    3.1358 H       1  UNL1        0.0000
      8 C          -0.2361   -3.4014    2.3947 C.ar    1  UNL1        0.0000
      9 H          -0.2639   -4.2507    1.7290 H       1  UNL1        0.0000
     10 C          -1.3184   -2.5305    2.4507 C.ar    1  UNL1        0.0000
     11 H          -2.1851   -2.7067    1.8315 H       1  UNL1        0.0000
     12 C          -1.2903   -1.4419    3.2961 C.ar    1  UNL1        0.0000
     13 H          -2.1275   -0.7606    3.3479 H       1  UNL1        0.0000
     14 C          -0.1804   -1.2014    4.1098 C.ar    1  UNL1        0.0000
     15 C           3.9207   -2.1949    7.0117 C.3     1  UNL1        0.0000
     16 H           3.2236   -2.0645    7.8344 H       1  UNL1        0.0000
     17 H           4.2983   -1.2130    6.7344 H       1  UNL1        0.0000
     18 H           4.7546   -2.7843    7.3774 H       1  UNL1        0.0000
     19 C           4.4472   -3.4958    4.2518 C.3     1  UNL1        0.0000
     20 H           4.0435   -3.8222    3.2981 H       1  UNL1        0.0000
     21 H           5.0711   -4.2966    4.6365 H       1  UNL1        0.0000
     22 H           5.0938   -2.6441    4.0589 H       1  UNL1        0.0000
     23 C           2.1249   -4.5914    6.0803 C.3     1  UNL1        0.0000
     24 H           1.7980   -5.1955    5.2402 H       1  UNL1        0.0000
     25 H           1.2404   -4.3210    6.6505 H       1  UNL1        0.0000
     26 H           2.7470   -5.2172    6.7119 H       1  UNL1        0.0000
     27 C          -2.5661   -0.7454    6.5918 C.3     1  UNL1        0.0000
     28 H          -2.9903   -1.3722    5.8128 H       1  UNL1        0.0000
     29 H          -3.3881   -0.2915    7.1355 H       1  UNL1        0.0000
     30 H          -2.0334   -1.3960    7.2798 H       1  UNL1        0.0000
     31 C          -0.4832    1.5309    7.2470 C.3     1  UNL1        0.0000
     32 H           0.2476    2.2231    6.8319 H       1  UNL1        0.0000
     33 H           0.0576    0.8428    7.8934 H       1  UNL1        0.0000
     34 H          -1.1655    2.1015    7.8681 H       1  UNL1        0.0000
     35 C          -2.3786    1.7982    4.7411 C.3     1  UNL1        0.0000
     36 H          -3.2269    1.3151    4.2638 H       1  UNL1        0.0000
     37 H          -1.7472    2.2092    3.9564 H       1  UNL1        0.0000
     38 H          -2.7677    2.6313    5.3182 H       1  UNL1        0.0000
@<TRIPOS>BOND
     1     9     8    1
     2    11    10    1
     3     8    10   ar
     4     8     6   ar
     5    10    12   ar
     6     7     6    1
     7     6     5   ar
     8    12    13    1
     9    12    14   ar
    10    20    19    1
    11    37    35    1
    12    22    19    1
    13     5    14   ar
    14     5     3    1
    15    14     4    1
    16    19    21    1
    17    19     1    1
    18    36    35    1
    19    35    38    1
    20    35     2    1
    21     3     1    1
    22     4     2    1
    23    24    23    1
    24     1    23    1
    25     1    15    1
    26    28    27    1
    27     2    27    1
    28     2    31    1
    29    23    25    1
    30    23    26    1
    31    27    29    1
    32    27    30    1
    33    17    15    1
    34    32    31    1
    35    15    18    1
    36    15    16    1
    37    31    34    1
    38    31    33    1
