@<TRIPOS>MOLECULE
1,2
 72 73 0 0 0
SMALL
GASTEIGER

@<TRIPOS>ATOM
      1 N          -0.4323    6.1594    6.6620 N.pl3   1  UNL1       -0.2371
      2 N          -0.1802    3.6183    6.3657 N.pl3   1  UNL1       -0.2192
      3 C          -1.7360    8.0030    5.7528 C.ar    1  UNL1       -0.0219
      4 C          -1.7912    9.3224    5.3280 C.ar    1  UNL1       -0.0565
      5 C          -0.6501   10.0985    5.2754 C.ar    1  UNL1       -0.0611
      6 C           0.5750    9.5548    5.6241 C.ar    1  UNL1       -0.0565
      7 C           0.6712    8.2469    6.0672 C.ar    1  UNL1       -0.0219
      8 C          -0.5001    7.4679    6.1527 C.ar    1  UNL1        0.0557
      9 C          -2.9851    7.1560    5.8170 C.3     1  UNL1       -0.0197
     10 C          -3.7466    7.1865    4.4916 C.3     1  UNL1       -0.0586
     11 C          -3.8866    7.6064    6.9691 C.3     1  UNL1       -0.0586
     12 C           1.9963    7.5994    6.3949 C.3     1  UNL1       -0.0197
     13 C           2.4495    6.7965    5.1711 C.3     1  UNL1       -0.0586
     14 C           3.0816    8.5848    6.8229 C.3     1  UNL1       -0.0586
     15 C          -0.3857    5.9445    7.9613 C.3     1  UNL1        0.0968
     16 C          -0.4814    7.0867    8.9436 C.3     1  UNL1       -0.0359
     17 C          -0.2262    4.6606    8.4794 C.2     1  UNL1       -0.0383
     18 C          -0.1223    3.5269    7.6795 C.2     1  UNL1        0.0264
     19 C           0.0632    2.1810    8.3320 C.3     1  UNL1       -0.0248
     20 C          -0.1731    2.4677    5.5589 C.ar    1  UNL1        0.0601
     21 C           1.0232    2.0324    4.9645 C.ar    1  UNL1       -0.0216
     22 C           0.9993    0.9159    4.1416 C.ar    1  UNL1       -0.0565
     23 C          -0.1781    0.2329    3.9073 C.ar    1  UNL1       -0.0611
     24 C          -1.3550    0.6603    4.4972 C.ar    1  UNL1       -0.0565
     25 C          -1.3731    1.7643    5.3327 C.ar    1  UNL1       -0.0216
     26 C           2.3123    2.7827    5.2046 C.3     1  UNL1       -0.0197
     27 C           2.8012    3.4040    3.8957 C.3     1  UNL1       -0.0586
     28 C           3.3861    1.8776    5.8117 C.3     1  UNL1       -0.0586
     29 C          -2.6574    2.2690    5.9508 C.3     1  UNL1       -0.0197
     30 C          -3.6548    1.1586    6.2786 C.3     1  UNL1       -0.0586
     31 C          -3.2820    3.2990    5.0063 C.3     1  UNL1       -0.0586
     32 H          -2.7382    9.7528    5.0397 H       1  UNL1        0.0621
     33 H          -0.7088   11.1260    4.9484 H       1  UNL1        0.0618
     34 H           1.4596   10.1676    5.5514 H       1  UNL1        0.0621
     35 H          -2.6725    6.1203    6.0073 H       1  UNL1        0.0344
     36 H          -4.1884    8.1640    4.3138 H       1  UNL1        0.0235
     37 H          -4.5482    6.4510    4.5042 H       1  UNL1        0.0235
     38 H          -3.0738    6.9554    3.6696 H       1  UNL1        0.0235
     39 H          -3.3711    7.5023    7.9207 H       1  UNL1        0.0235
     40 H          -4.7893    7.0000    6.9998 H       1  UNL1        0.0235
     41 H          -4.1753    8.6483    6.8463 H       1  UNL1        0.0235
     42 H           1.8384    6.8912    7.2137 H       1  UNL1        0.0344
     43 H           1.6772    6.0678    4.8934 H       1  UNL1        0.0235
     44 H           3.3735    6.2658    5.3868 H       1  UNL1        0.0235
     45 H           2.6155    7.4609    4.3263 H       1  UNL1        0.0235
     46 H           3.4097    9.1979    5.9869 H       1  UNL1        0.0235
     47 H           3.9461    8.0388    7.1948 H       1  UNL1        0.0235
     48 H           2.7209    9.2370    7.6154 H       1  UNL1        0.0235
     49 H           0.5153    7.3771    9.2773 H       1  UNL1        0.0255
     50 H          -1.0512    6.7810    9.8183 H       1  UNL1        0.0255
     51 H          -0.9523    7.9568    8.4914 H       1  UNL1        0.0255
     52 H          -0.1777    4.5449    9.5495 H       1  UNL1        0.0610
     53 H          -0.8275    1.5665    8.2032 H       1  UNL1        0.0290
     54 H           0.2588    2.2930    9.3946 H       1  UNL1        0.0290
     55 H           0.8942    1.6514    7.8684 H       1  UNL1        0.0290
     56 H           1.9120    0.5732    3.6776 H       1  UNL1        0.0621
     57 H          -0.1822   -0.6339    3.2628 H       1  UNL1        0.0618
     58 H          -2.2671    0.1193    4.2997 H       1  UNL1        0.0621
     59 H           2.1048    3.5977    5.9084 H       1  UNL1        0.0344
     60 H           3.0225    2.6345    3.1599 H       1  UNL1        0.0235
     61 H           3.7052    3.9841    4.0647 H       1  UNL1        0.0235
     62 H           2.0335    4.0613    3.4926 H       1  UNL1        0.0235
     63 H           3.0324    1.4229    6.7347 H       1  UNL1        0.0235
     64 H           4.2790    2.4571    6.0364 H       1  UNL1        0.0235
     65 H           3.6611    1.0816    5.1239 H       1  UNL1        0.0235
     66 H          -2.4101    2.7893    6.8812 H       1  UNL1        0.0344
     67 H          -4.0944    0.7418    5.3758 H       1  UNL1        0.0235
     68 H          -4.4624    1.5588    6.8880 H       1  UNL1        0.0235
     69 H          -3.1721    0.3560    6.8324 H       1  UNL1        0.0235
     70 H          -2.5750    4.1188    4.8479 H       1  UNL1        0.0235
     71 H          -4.1982    3.7013    5.4327 H       1  UNL1        0.0235
     72 H          -3.5118    2.8456    4.0445 H       1  UNL1        0.0235
@<TRIPOS>BOND
     1    60    27    1
     2    57    23    1
     3    62    27    1
     4    38    10    1
     5    56    22    1
     6    27    61    1
     7    27    26    1
     8    23    22   ar
     9    23    24   ar
    10    72    31    1
    11    22    21   ar
    12    58    24    1
    13    36    10    1
    14    45    13    1
    15    10    37    1
    16    10     9    1
    17    24    25   ar
    18    70    31    1
    19    43    13    1
    20    33     5    1
    21    21    26    1
    22    21    20   ar
    23    31    71    1
    24    31    29    1
    25    32     4    1
    26    65    28    1
    27    13    44    1
    28    13    12    1
    29    26    28    1
    30    26    59    1
    31     5     4   ar
    32     5     6   ar
    33     4     3   ar
    34    25    20   ar
    35    25    29    1
    36    67    30    1
    37    34     6    1
    38    20     2    1
    39     6     7   ar
    40     3     9    1
    41     3     8   ar
    42    28    64    1
    43    28    63    1
    44     9    35    1
    45     9    11    1
    46    29    30    1
    47    29    66    1
    48    46    14    1
    49     7     8   ar
    50     7    12    1
    51     8     1    1
    52    30    69    1
    53    30    68    1
    54     2    18    1
    55    12    14    1
    56    12    42    1
    57     1    15    1
    58    14    47    1
    59    14    48    1
    60    41    11    1
    61    11    40    1
    62    11    39    1
    63    18    19    1
    64    18    17    2
    65    55    19    1
    66    15    17    1
    67    15    16    1
    68    53    19    1
    69    19    54    1
    70    17    52    1
    71    51    16    1
    72    16    49    1
    73    16    50    1
