@<TRIPOS>MOLECULE
2,3
 27 27 0 0 0
SMALL
GASTEIGER

@<TRIPOS>ATOM
      1 SI          0.5385    2.6515    3.6440 Si      1  UNL1        0.0000
      2 N           4.0840    1.1201    3.0643 N.pl3   1  UNL1        0.0000
      3 N           2.1395    1.9834    3.7842 N.3     1  UNL1        0.0000
      4 C           3.0030    1.8675    2.7664 C.3     1  UNL1        0.0000
      5 C           2.8859    2.4479    1.4874 C.2     1  UNL1        0.0000
      6 H           2.0485    3.0897    1.2751 H       1  UNL1        0.0000
      7 C           3.8411    2.2001    0.5292 C.2     1  UNL1        0.0000
      8 C           4.9339    1.3884    0.8656 C.2     1  UNL1        0.0000
      9 H           5.6977    1.1648    0.1382 H       1  UNL1        0.0000
     10 C           5.0102    0.8911    2.1448 C.2     1  UNL1        0.0000
     11 H           5.8399    0.2731    2.4642 H       1  UNL1        0.0000
     12 C          -0.5143    1.8175    5.0091 C.3     1  UNL1        0.0000
     13 H          -1.2303    1.1216    4.5835 H       1  UNL1        0.0000
     14 H          -1.0854    2.5598    5.5568 H       1  UNL1        0.0000
     15 H           0.0986    1.2695    5.7203 H       1  UNL1        0.0000
     16 C           0.5725    4.5573    3.8783 C.3     1  UNL1        0.0000
     17 H           1.3070    5.0267    3.2292 H       1  UNL1        0.0000
     18 H           0.8123    4.8410    4.8975 H       1  UNL1        0.0000
     19 H          -0.3959    4.9869    3.6403 H       1  UNL1        0.0000
     20 C          -0.3338    2.3293    1.9652 C.3     1  UNL1        0.0000
     21 H          -0.3285    3.2154    1.3372 H       1  UNL1        0.0000
     22 H          -1.3735    2.0587    2.1220 H       1  UNL1        0.0000
     23 H           0.1370    1.5264    1.4092 H       1  UNL1        0.0000
     24 C           3.7306    2.7723   -0.8489 C.3     1  UNL1        0.0000
     25 H           4.6410    3.3084   -1.1128 H       1  UNL1        0.0000
     26 H           2.8852    3.4509   -0.9239 H       1  UNL1        0.0000
     27 H           3.5976    1.9680   -1.5715 H       1  UNL1        0.0000
@<TRIPOS>BOND
     1    27    24    1
     2    25    24    1
     3    26    24    1
     4    24     7    1
     5     9     8    1
     6     7     8    1
     7     7     5    2
     8     8    10    2
     9     6     5    1
    10    21    20    1
    11    23    20    1
    12     5     4    1
    13    20    22    1
    14    20     1    1
    15    10    11    1
    16    10     2    1
    17     4     2    1
    18     4     3    1
    19    17    16    1
    20    19    16    1
    21     1     3    1
    22     1    16    1
    23     1    12    1
    24    16    18    1
    25    13    12    1
    26    12    14    1
    27    12    15    1
