@<TRIPOS>MOLECULE
2,3
 27 27 0 0 0
SMALL
GASTEIGER

@<TRIPOS>ATOM
      1 SI          6.3852    3.1934    4.9804 Si      1  UNL1        0.0000
      2 N           5.3737   -0.4843    5.5360 N.ar    1  UNL1        0.0000
      3 N           5.5642    1.7543    5.4926 N.pl3   1  UNL1        0.0000
      4 C           6.1953    0.5794    5.6148 C.ar    1  UNL1        0.0000
      5 C           7.5765    0.3935    5.8275 C.ar    1  UNL1        0.0000
      6 H           8.2107    1.2583    5.9303 H       1  UNL1        0.0000
      7 C           8.0902   -0.8761    5.9452 C.ar    1  UNL1        0.0000
      8 C           7.2121   -1.9628    5.8282 C.ar    1  UNL1        0.0000
      9 H           7.5765   -2.9744    5.9037 H       1  UNL1        0.0000
     10 C           5.8751   -1.7095    5.6401 C.ar    1  UNL1        0.0000
     11 H           5.1612   -2.5194    5.5651 H       1  UNL1        0.0000
     12 C           9.5437   -1.1123    6.2085 C.3     1  UNL1        0.0000
     13 H           9.9580   -1.7984    5.4714 H       1  UNL1        0.0000
     14 H           9.6684   -1.5657    7.1911 H       1  UNL1        0.0000
     15 H          10.1034   -0.1811    6.1807 H       1  UNL1        0.0000
     16 C           5.0885    4.4714    4.4051 C.3     1  UNL1        0.0000
     17 H           4.6695    5.0451    5.2246 H       1  UNL1        0.0000
     18 H           4.2714    3.9978    3.8673 H       1  UNL1        0.0000
     19 H           5.5571    5.1795    3.7288 H       1  UNL1        0.0000
     20 C           7.5091    2.8691    3.4595 C.3     1  UNL1        0.0000
     21 H           8.0716    1.9458    3.5574 H       1  UNL1        0.0000
     22 H           8.2222    3.6769    3.3239 H       1  UNL1        0.0000
     23 H           6.9193    2.7953    2.5505 H       1  UNL1        0.0000
     24 C           7.4749    3.9322    6.3829 C.3     1  UNL1        0.0000
     25 H           7.2336    4.9751    6.5635 H       1  UNL1        0.0000
     26 H           8.5275    3.8902    6.1186 H       1  UNL1        0.0000
     27 H           7.3510    3.3975    7.3201 H       1  UNL1        0.0000
@<TRIPOS>BOND
     1    23    20    1
     2    22    20    1
     3    20    21    1
     4    20     1    1
     5    19    16    1
     6    18    16    1
     7    16     1    1
     8    16    17    1
     9     1     3    1
    10     1    24    1
    11    13    12    1
    12     3     4    1
    13     2     4   ar
    14     2    10   ar
    15    11    10    1
    16     4     5   ar
    17    10     8   ar
    18     5     6    1
    19     5     7   ar
    20     8     9    1
    21     8     7   ar
    22     7    12    1
    23    26    24    1
    24    15    12    1
    25    12    14    1
    26    24    25    1
    27    24    27    1
