@<TRIPOS>MOLECULE
2,3
 27 27 0 0 0
SMALL
GASTEIGER

@<TRIPOS>ATOM
      1 SI         -2.2419   -0.0730   11.6927 Si      1  UNL1        0.0000
      2 N          -1.6544    1.0148   15.4022 N.pl3   1  UNL1        0.0000
      3 N          -1.6686    0.5897   13.1945 N.3     1  UNL1        0.0000
      4 C          -2.0989    0.2177   14.4068 C.3     1  UNL1        0.0000
      5 C          -2.9055   -0.8963   14.7135 C.2     1  UNL1        0.0000
      6 H          -3.2282   -1.5530   13.9253 H       1  UNL1        0.0000
      7 C          -3.2440   -1.1342   16.0226 C.2     1  UNL1        0.0000
      8 H          -3.8675   -1.9801   16.2756 H       1  UNL1        0.0000
      9 C          -2.7699   -0.2959   17.0271 C.2     1  UNL1        0.0000
     10 H          -3.0210   -0.4668   18.0616 H       1  UNL1        0.0000
     11 C          -1.9592    0.7690   16.6708 C.2     1  UNL1        0.0000
     12 C          -1.3902    1.6894   17.7072 C.3     1  UNL1        0.0000
     13 H          -0.7682    2.4449   17.2339 H       1  UNL1        0.0000
     14 H          -0.7884    1.1228   18.4170 H       1  UNL1        0.0000
     15 H          -2.1937    2.1746   18.2582 H       1  UNL1        0.0000
     16 C          -4.0981   -0.5655   11.6744 C.3     1  UNL1        0.0000
     17 H          -4.6419   -0.1550   12.5174 H       1  UNL1        0.0000
     18 H          -4.2203   -1.6446   11.6966 H       1  UNL1        0.0000
     19 H          -4.5784   -0.2110   10.7676 H       1  UNL1        0.0000
     20 C          -1.9664    1.2816   10.3707 C.3     1  UNL1        0.0000
     21 H          -1.4865    2.1631   10.7860 H       1  UNL1        0.0000
     22 H          -2.9058    1.5972    9.9287 H       1  UNL1        0.0000
     23 H          -1.3477    0.9104    9.5606 H       1  UNL1        0.0000
     24 C          -1.2938   -1.6662   11.1820 C.3     1  UNL1        0.0000
     25 H          -1.4137   -2.4643   11.9098 H       1  UNL1        0.0000
     26 H          -0.2300   -1.4938   11.0544 H       1  UNL1        0.0000
     27 H          -1.6763   -2.0338   10.2346 H       1  UNL1        0.0000
@<TRIPOS>BOND
     1    23    20    1
     2    22    20    1
     3    27    24    1
     4    20    21    1
     5    20     1    1
     6    19    16    1
     7    26    24    1
     8    24     1    1
     9    24    25    1
    10    16     1    1
    11    16    18    1
    12    16    17    1
    13     1     3    1
    14     3     4    1
    15     6     5    1
    16     4     5    1
    17     4     2    1
    18     5     7    2
    19     2    11    1
    20     7     8    1
    21     7     9    1
    22    11     9    2
    23    11    12    1
    24     9    10    1
    25    13    12    1
    26    12    15    1
    27    12    14    1
