@<TRIPOS>MOLECULE
2,3
 27 27 0 0 0
SMALL
GASTEIGER

@<TRIPOS>ATOM
      1 SI          1.8112    3.8240   16.3675 Si      1  UNL1        0.0000
      2 N           0.9864    0.2092   15.1581 N.ar    1  UNL1        0.0000
      3 N           1.2628    2.4286   15.4785 N.pl3   1  UNL1        0.0000
      4 C           1.7000    1.1857   15.7516 C.ar    1  UNL1        0.0000
      5 C           2.8043    0.8523   16.5587 C.ar    1  UNL1        0.0000
      6 H           3.4246    1.6300   16.9652 H       1  UNL1        0.0000
      7 C           3.0929   -0.4727   16.7823 C.ar    1  UNL1        0.0000
      8 H           3.9360   -0.7455   17.4010 H       1  UNL1        0.0000
      9 C           2.3052   -1.4620   16.2039 C.ar    1  UNL1        0.0000
     10 H           2.5048   -2.5080   16.3738 H       1  UNL1        0.0000
     11 C           1.2671   -1.0715   15.3718 C.ar    1  UNL1        0.0000
     12 C           0.4087   -2.0837   14.6758 C.3     1  UNL1        0.0000
     13 H          -0.1620   -1.6064   13.8844 H       1  UNL1        0.0000
     14 H          -0.2913   -2.5228   15.3868 H       1  UNL1        0.0000
     15 H           1.0197   -2.8834   14.2614 H       1  UNL1        0.0000
     16 C           0.4141    5.1317   16.2905 C.3     1  UNL1        0.0000
     17 H           0.0439    5.3676   17.2835 H       1  UNL1        0.0000
     18 H          -0.4286    4.7986   15.6923 H       1  UNL1        0.0000
     19 H           0.7812    6.0594   15.8642 H       1  UNL1        0.0000
     20 C           3.4407    4.4879   15.6101 C.3     1  UNL1        0.0000
     21 H           4.2059    3.7171   15.5795 H       1  UNL1        0.0000
     22 H           3.8294    5.3189   16.1907 H       1  UNL1        0.0000
     23 H           3.2986    4.8334   14.5910 H       1  UNL1        0.0000
     24 C           2.0944    3.4755   18.2367 C.3     1  UNL1        0.0000
     25 H           1.6136    2.5568   18.5581 H       1  UNL1        0.0000
     26 H           1.6984    4.2831   18.8445 H       1  UNL1        0.0000
     27 H           3.1507    3.3913   18.4726 H       1  UNL1        0.0000
@<TRIPOS>BOND
     1    13    12    1
     2    15    12    1
     3    23    20    1
     4    12    11    1
     5    12    14    1
     6     2    11   ar
     7     2     4   ar
     8    11     9   ar
     9     3     4    1
    10     3     1    1
    11    21    20    1
    12    20    22    1
    13    20     1    1
    14    18    16    1
    15     4     5   ar
    16    19    16    1
    17     9    10    1
    18     9     7   ar
    19    16     1    1
    20    16    17    1
    21     1    24    1
    22     5     7   ar
    23     5     6    1
    24     7     8    1
    25    24    27    1
    26    24    25    1
    27    24    26    1
