@<TRIPOS>MOLECULE
1,12
 20 21 0 0 0
SMALL
GASTEIGER

@<TRIPOS>ATOM
      1 N           0.5013   10.6211    5.2249 N.pl3   1  UNL1       -0.2427
      2 C           1.8266   10.4869    5.1261 C.3     1  UNL1        0.0844
      3 H           2.1926    9.4796    5.2434 H       1  UNL1        0.0584
      4 C           2.6809   11.5482    4.9320 C.2     1  UNL1       -0.0600
      5 H           3.7449   11.3795    4.8897 H       1  UNL1        0.0592
      6 C           2.1481   12.8297    4.7978 C.2     1  UNL1       -0.0623
      7 H           2.7916   13.6833    4.6526 H       1  UNL1        0.0616
      8 C           0.7776   12.9785    4.8447 C.2     1  UNL1       -0.0408
      9 H           0.3256   13.9509    4.7328 H       1  UNL1        0.0634
     10 C          -0.0294   11.8614    5.0523 C.2     1  UNL1        0.0578
     11 C          -1.4683   11.8648    5.1679 C.3     1  UNL1        0.1419
     12 N          -1.9520   10.6538    5.5441 N.pl3   1  UNL1       -0.2387
     13 C          -3.2714   10.5153    5.6793 C.2     1  UNL1        0.0129
     14 H          -3.6050    9.5311    5.9708 H       1  UNL1        0.0798
     15 C          -4.1652   11.5384    5.4572 C.2     1  UNL1       -0.0466
     16 H          -5.2228   11.3649    5.5687 H       1  UNL1        0.0630
     17 C          -3.6766   12.7869    5.0756 C.2     1  UNL1       -0.0620
     18 H          -4.3513   13.6080    4.8902 H       1  UNL1        0.0616
     19 C          -2.3132   12.9484    4.9378 C.2     1  UNL1       -0.0507
     20 H          -1.8984   13.8982    4.6419 H       1  UNL1        0.0598
@<TRIPOS>BOND
     1    20    19    1
     2     7     6    1
     3     9     8    1
     4     6     8    1
     5     6     4    2
     6     8    10    2
     7     5     4    1
     8    18    17    1
     9     4     2    1
    10    19    17    2
    11    19    11    1
    12    10    11    1
    13    10     1    1
    14    17    15    1
    15     2     1    1
    16     2     3    1
    17    11    12    1
    18    15    16    1
    19    15    13    2
    20    12    13    1
    21    13    14    1
