@<TRIPOS>MOLECULE
3,4
 38 38 0 0 0
SMALL
GASTEIGER

@<TRIPOS>ATOM
      1 SI         12.2200    2.7631    3.6531 Si      1  UNL1        0.0000
      2 SI          8.3557    2.8083   -0.6266 Si      1  UNL1        0.0000
      3 N          10.6251    2.7173    2.9583 N.pl3   1  UNL1        0.0000
      4 N           8.8020    2.6984    1.0538 N.pl3   1  UNL1        0.0000
      5 C           9.6435    3.6619    3.0569 C.ar    1  UNL1        0.0000
      6 C           8.6676    3.6727    2.0043 C.ar    1  UNL1        0.0000
      7 C           7.7102    4.6899    1.9814 C.ar    1  UNL1        0.0000
      8 C           7.6830    5.6568    2.9635 C.ar    1  UNL1        0.0000
      9 C           8.6053    5.6267    4.0038 C.ar    1  UNL1        0.0000
     10 C           9.5703    4.6430    4.0516 C.ar    1  UNL1        0.0000
     11 C          13.0939    1.3417    2.7319 C.3     1  UNL1        0.0000
     12 C          12.1896    2.3841    5.5312 C.3     1  UNL1        0.0000
     13 C          13.0590    4.4448    3.3003 C.3     1  UNL1        0.0000
     14 C           9.2645    1.2974   -1.3564 C.3     1  UNL1        0.0000
     15 C           6.4782    2.6360   -0.9468 C.3     1  UNL1        0.0000
     16 C           9.0191    4.4503   -1.3493 C.3     1  UNL1        0.0000
     17 H           6.9887    4.7028    1.1782 H       1  UNL1        0.0000
     18 H           6.9385    6.4376    2.9257 H       1  UNL1        0.0000
     19 H           8.5714    6.3817    4.7753 H       1  UNL1        0.0000
     20 H          10.2980    4.6244    4.8498 H       1  UNL1        0.0000
     21 H          12.5111    0.4247    2.8119 H       1  UNL1        0.0000
     22 H          14.0808    1.1478    3.1374 H       1  UNL1        0.0000
     23 H          13.2115    1.5682    1.6752 H       1  UNL1        0.0000
     24 H          11.8862    3.2410    6.1257 H       1  UNL1        0.0000
     25 H          13.1715    2.0807    5.8795 H       1  UNL1        0.0000
     26 H          11.4987    1.5717    5.7440 H       1  UNL1        0.0000
     27 H          13.0850    4.6542    2.2347 H       1  UNL1        0.0000
     28 H          14.0820    4.4446    3.6617 H       1  UNL1        0.0000
     29 H          12.5390    5.2675    3.7810 H       1  UNL1        0.0000
     30 H          10.3412    1.4495   -1.3661 H       1  UNL1        0.0000
     31 H           8.9534    1.0950   -2.3755 H       1  UNL1        0.0000
     32 H           9.0607    0.4068   -0.7600 H       1  UNL1        0.0000
     33 H           6.1057    1.6903   -0.5647 H       1  UNL1        0.0000
     34 H           6.2705    2.6675   -2.0118 H       1  UNL1        0.0000
     35 H           5.8985    3.4239   -0.4757 H       1  UNL1        0.0000
     36 H           8.4900    5.3070   -0.9433 H       1  UNL1        0.0000
     37 H           8.9051    4.4732   -2.4281 H       1  UNL1        0.0000
     38 H          10.0742    4.5819   -1.1240 H       1  UNL1        0.0000
@<TRIPOS>BOND
     1    37    16    1
     2    31    14    1
     3    34    15    1
     4    30    14    1
     5    14    32    1
     6    14     2    1
     7    16    38    1
     8    16    36    1
     9    16     2    1
    10    15     2    1
    11    15    33    1
    12    15    35    1
    13     2     4    1
    14     4     6    1
    15    17     7    1
    16    23    11    1
    17     7     6   ar
    18     7     8   ar
    19     6     5   ar
    20    27    13    1
    21    11    21    1
    22    11    22    1
    23    11     1    1
    24    18     8    1
    25     3     5    1
    26     3     1    1
    27     8     9   ar
    28     5    10   ar
    29    13     1    1
    30    13    28    1
    31    13    29    1
    32     1    12    1
    33     9    10   ar
    34     9    19    1
    35    10    20    1
    36    12    26    1
    37    12    25    1
    38    12    24    1
