@<TRIPOS>MOLECULE
3,4
 38 38 0 0 0
SMALL
GASTEIGER

@<TRIPOS>ATOM
      1 SI          3.7821    1.3726    4.5687 Si      1  UNL1        0.0000
      2 SI          8.0849    4.9441    4.0815 Si      1  UNL1        0.0000
      3 N           5.0574    2.2188    3.7490 N.pl3   1  UNL1        0.0000
      4 N           7.1755    3.6516    3.3221 N.pl3   1  UNL1        0.0000
      5 C           4.9261    3.1379    2.7523 C.ar    1  UNL1        0.0000
      6 C           6.0732    3.9666    2.5430 C.ar    1  UNL1        0.0000
      7 C           6.0033    5.0029    1.6167 C.ar    1  UNL1        0.0000
      8 C           4.8518    5.2122    0.8781 C.ar    1  UNL1        0.0000
      9 C           3.7450    4.3959    1.0640 C.ar    1  UNL1        0.0000
     10 C           3.7758    3.3754    1.9942 C.ar    1  UNL1        0.0000
     11 C           2.5011    2.5930    5.2936 C.3     1  UNL1        0.0000
     12 C           2.9230    0.0798    3.4433 C.3     1  UNL1        0.0000
     13 C           4.7288    0.4754    5.9622 C.3     1  UNL1        0.0000
     14 C           6.8011    6.0283    5.0017 C.3     1  UNL1        0.0000
     15 C           9.1052    6.0660    2.9000 C.3     1  UNL1        0.0000
     16 C           9.2938    4.1236    5.2985 C.3     1  UNL1        0.0000
     17 H           6.8681    5.6304    1.4648 H       1  UNL1        0.0000
     18 H           4.8177    6.0135    0.1552 H       1  UNL1        0.0000
     19 H           2.8500    4.5621    0.4826 H       1  UNL1        0.0000
     20 H           2.9119    2.7460    2.1471 H       1  UNL1        0.0000
     21 H           2.9746    3.3128    5.9542 H       1  UNL1        0.0000
     22 H           1.7508    2.0608    5.8682 H       1  UNL1        0.0000
     23 H           1.9881    3.1520    4.5177 H       1  UNL1        0.0000
     24 H           2.1518    0.5162    2.8148 H       1  UNL1        0.0000
     25 H           2.4580   -0.7063    4.0301 H       1  UNL1        0.0000
     26 H           3.6615   -0.3822    2.7928 H       1  UNL1        0.0000
     27 H           5.6256    0.0055    5.5550 H       1  UNL1        0.0000
     28 H           4.1242   -0.2962    6.4272 H       1  UNL1        0.0000
     29 H           5.0345    1.1650    6.7442 H       1  UNL1        0.0000
     30 H           6.1074    6.4897    4.3041 H       1  UNL1        0.0000
     31 H           7.2781    6.8207    5.5690 H       1  UNL1        0.0000
     32 H           6.2161    5.4272    5.6934 H       1  UNL1        0.0000
     33 H           9.5192    5.5193    2.0573 H       1  UNL1        0.0000
     34 H           9.9397    6.5023    3.4402 H       1  UNL1        0.0000
     35 H           8.5159    6.8886    2.5052 H       1  UNL1        0.0000
     36 H           8.7685    3.5629    6.0651 H       1  UNL1        0.0000
     37 H           9.9040    4.8719    5.7929 H       1  UNL1        0.0000
     38 H           9.9600    3.4337    4.7906 H       1  UNL1        0.0000
@<TRIPOS>BOND
     1    18     8    1
     2    19     9    1
     3     8     9   ar
     4     8     7   ar
     5     9    10   ar
     6    17     7    1
     7     7     6   ar
     8    10    20    1
     9    10     5   ar
    10    33    15    1
    11    35    15    1
    12     6     5   ar
    13     6     4    1
    14     5     3    1
    15    26    12    1
    16    24    12    1
    17    15    34    1
    18    15     2    1
    19     4     2    1
    20    12    25    1
    21    12     1    1
    22     3     1    1
    23     2    14    1
    24     2    16    1
    25    30    14    1
    26    23    11    1
    27     1    11    1
    28     1    13    1
    29    38    16    1
    30    14    31    1
    31    14    32    1
    32    11    22    1
    33    11    21    1
    34    16    37    1
    35    16    36    1
    36    27    13    1
    37    13    28    1
    38    13    29    1
