@<TRIPOS>MOLECULE
1,2
 72 73 0 0 0
SMALL
GASTEIGER

@<TRIPOS>ATOM
      1 N           5.4269    3.4315    1.5253 N.pl3   1  UNL1       -0.2371
      2 N           5.3004    6.0909    1.2709 N.pl3   1  UNL1       -0.2192
      3 C           4.4240    3.4189    0.6760 C.3     1  UNL1        0.0968
      4 C           3.7254    4.5830    0.3498 C.2     1  UNL1       -0.0383
      5 H           2.8399    4.4754   -0.2563 H       1  UNL1        0.0610
      6 C           4.1655    5.8723    0.6302 C.2     1  UNL1        0.0264
      7 C           4.0053    2.1695   -0.0628 C.3     1  UNL1       -0.0359
      8 H           4.6950    1.3520    0.1297 H       1  UNL1        0.0255
      9 H           3.9843    2.3700   -1.1334 H       1  UNL1        0.0255
     10 H           3.0013    1.8736    0.2347 H       1  UNL1        0.0255
     11 C           3.3150    7.0203    0.1425 C.3     1  UNL1       -0.0248
     12 H           3.9066    7.9217    0.0007 H       1  UNL1        0.0290
     13 H           2.5479    7.2272    0.8894 H       1  UNL1        0.0290
     14 H           2.8120    6.7658   -0.7873 H       1  UNL1        0.0290
     15 C           6.1177    2.2807    1.9250 C.ar    1  UNL1        0.0557
     16 C           7.4736    2.1464    1.5502 C.ar    1  UNL1       -0.0219
     17 C           8.2136    1.0790    2.0287 C.ar    1  UNL1       -0.0565
     18 H           9.2490    0.9709    1.7483 H       1  UNL1        0.0621
     19 C           7.6402    0.1293    2.8540 C.ar    1  UNL1       -0.0611
     20 H           8.2295   -0.6953    3.2268 H       1  UNL1        0.0618
     21 C           6.3016    0.2287    3.1751 C.ar    1  UNL1       -0.0565
     22 H           5.8531   -0.5349    3.7921 H       1  UNL1        0.0621
     23 C           5.5193    1.2829    2.7235 C.ar    1  UNL1       -0.0219
     24 C           4.0531    1.2922    3.0988 C.3     1  UNL1       -0.0197
     25 H           3.5936    2.1970    2.6929 H       1  UNL1        0.0344
     26 C           3.3322    0.0627    2.5299 C.3     1  UNL1       -0.0586
     27 H           3.5153   -0.0603    1.4668 H       1  UNL1        0.0235
     28 H           2.2595    0.1550    2.6883 H       1  UNL1        0.0235
     29 H           3.6703   -0.8408    3.0321 H       1  UNL1        0.0235
     30 C           3.8612    1.3046    4.6172 C.3     1  UNL1       -0.0586
     31 H           4.4159    2.1205    5.0627 H       1  UNL1        0.0235
     32 H           4.2046    0.3728    5.0602 H       1  UNL1        0.0235
     33 H           2.8054    1.4221    4.8544 H       1  UNL1        0.0235
     34 C           8.0553    3.1090    0.5393 C.3     1  UNL1       -0.0197
     35 H           7.6487    4.1079    0.7636 H       1  UNL1        0.0344
     36 C           9.5783    3.1964    0.5573 C.3     1  UNL1       -0.0586
     37 H           9.9417    3.3856    1.5615 H       1  UNL1        0.0235
     38 H           9.9018    4.0127   -0.0843 H       1  UNL1        0.0235
     39 H          10.0278    2.2810    0.1778 H       1  UNL1        0.0235
     40 C           7.5853    2.6949   -0.8609 C.3     1  UNL1       -0.0586
     41 H           6.5091    2.7979   -0.9543 H       1  UNL1        0.0235
     42 H           7.8537    1.6575   -1.0541 H       1  UNL1        0.0235
     43 H           8.0566    3.3176   -1.6173 H       1  UNL1        0.0235
     44 C           5.9489    7.3387    1.1522 C.ar    1  UNL1        0.0601
     45 C           6.7537    7.5858    0.0218 C.ar    1  UNL1       -0.0216
     46 C           7.3726    8.8189   -0.1089 C.ar    1  UNL1       -0.0565
     47 H           7.9768    9.0241   -0.9789 H       1  UNL1        0.0621
     48 C           7.2239    9.8003    0.8529 C.ar    1  UNL1       -0.0611
     49 H           7.7123   10.7562    0.7325 H       1  UNL1        0.0618
     50 C           6.4413    9.5533    1.9629 C.ar    1  UNL1       -0.0565
     51 H           6.3197   10.3264    2.7066 H       1  UNL1        0.0621
     52 C           5.7940    8.3373    2.1260 C.ar    1  UNL1       -0.0216
     53 C           4.9121    8.1116    3.3277 C.3     1  UNL1       -0.0197
     54 H           4.5212    7.0899    3.2645 H       1  UNL1        0.0344
     55 C           3.7365    9.0926    3.3426 C.3     1  UNL1       -0.0586
     56 H           3.1797    9.0447    2.4100 H       1  UNL1        0.0235
     57 H           4.0862   10.1136    3.4765 H       1  UNL1        0.0235
     58 H           3.0603    8.8545    4.1612 H       1  UNL1        0.0235
     59 C           5.7306    8.2301    4.6124 C.3     1  UNL1       -0.0586
     60 H           6.5268    7.4905    4.5984 H       1  UNL1        0.0235
     61 H           5.0990    8.0522    5.4800 H       1  UNL1        0.0235
     62 H           6.1666    9.2218    4.7081 H       1  UNL1        0.0235
     63 C           6.9290    6.5379   -1.0543 C.3     1  UNL1       -0.0197
     64 H           6.6033    5.5760   -0.6451 H       1  UNL1        0.0344
     65 C           8.3894    6.4108   -1.4935 C.3     1  UNL1       -0.0586
     66 H           9.0433    6.3097   -0.6319 H       1  UNL1        0.0235
     67 H           8.7051    7.2797   -2.0656 H       1  UNL1        0.0235
     68 H           8.5092    5.5368   -2.1300 H       1  UNL1        0.0235
     69 C           6.0542    6.8632   -2.2689 C.3     1  UNL1       -0.0586
     70 H           5.0024    6.8510   -2.0008 H       1  UNL1        0.0235
     71 H           6.2168    6.1268   -3.0533 H       1  UNL1        0.0235
     72 H           6.2997    7.8476   -2.6625 H       1  UNL1        0.0235
@<TRIPOS>BOND
     1    71    69    1
     2    72    69    1
     3    69    70    1
     4    69    63    1
     5    68    65    1
     6    67    65    1
     7    43    40    1
     8    65    63    1
     9    65    66    1
    10     9     7    1
    11    63    64    1
    12    63    45    1
    13    42    40    1
    14    47    46    1
    15    41    40    1
    16    40    34    1
    17    14    11    1
    18     5     4    1
    19    46    45   ar
    20    46    48   ar
    21    38    36    1
    22     7     8    1
    23     7    10    1
    24     7     3    1
    25    12    11    1
    26    45    44   ar
    27    11     6    1
    28    11    13    1
    29    39    36    1
    30     4     6    2
    31     4     3    1
    32    34    36    1
    33    34    35    1
    34    34    16    1
    35    36    37    1
    36     6     2    1
    37     3     1    1
    38    49    48    1
    39    48    50   ar
    40    44     2    1
    41    44    52   ar
    42    27    26    1
    43     1    15    1
    44    16    15   ar
    45    16    17   ar
    46    18    17    1
    47    15    23   ar
    48    50    52   ar
    49    50    51    1
    50    17    19   ar
    51    52    53    1
    52    56    55    1
    53    26    28    1
    54    26    29    1
    55    26    24    1
    56    25    24    1
    57    23    24    1
    58    23    21   ar
    59    19    21   ar
    60    19    20    1
    61    24    30    1
    62    21    22    1
    63    54    53    1
    64    53    55    1
    65    53    59    1
    66    55    57    1
    67    55    58    1
    68    60    59    1
    69    59    62    1
    70    59    61    1
    71    30    33    1
    72    30    32    1
    73    30    31    1
