@<TRIPOS>MOLECULE
1,2
 36 37 0 0 0
SMALL
GASTEIGER

@<TRIPOS>ATOM
      1 N          -0.5760    3.8239   -0.3500 N.pl3   1  UNL1       -0.2319
      2 N          -2.3702    2.6385    1.1783 N.pl3   1  UNL1       -0.2139
      3 C          -1.5297    3.8882   -1.2679 C.3     1  UNL1        0.0970
      4 C          -2.7977    3.3728   -1.0231 C.2     1  UNL1       -0.0383
      5 H          -3.5258    3.4569   -1.8132 H       1  UNL1        0.0610
      6 C          -3.2106    2.7796    0.1645 C.2     1  UNL1        0.0265
      7 C          -1.2627    4.4759   -2.6260 C.3     1  UNL1       -0.0359
      8 H          -0.2027    4.4409   -2.8693 H       1  UNL1        0.0255
      9 H          -1.5908    5.5142   -2.6562 H       1  UNL1        0.0255
     10 H          -1.8183    3.9276   -3.3820 H       1  UNL1        0.0255
     11 C          -4.6525    2.3708    0.2806 C.3     1  UNL1       -0.0248
     12 H          -4.9768    2.3619    1.3192 H       1  UNL1        0.0290
     13 H          -4.7926    1.3730   -0.1334 H       1  UNL1        0.0290
     14 H          -5.2796    3.0580   -0.2810 H       1  UNL1        0.0290
     15 C           0.6055    4.5109   -0.4452 C.ar    1  UNL1        0.1250
     16 F           1.7304    2.4952   -0.0232 F       1  UNL1       -0.2003
     17 C           1.8151    3.8269   -0.2331 C.ar    1  UNL1        0.1867
     18 F           4.1643    3.7453   -0.0500 F       1  UNL1       -0.1993
     19 C           3.0461    4.4511   -0.2472 C.ar    1  UNL1        0.1983
     20 F           4.3025    6.4467   -0.4958 F       1  UNL1       -0.1993
     21 C           3.1189    5.8255   -0.4786 C.ar    1  UNL1        0.1992
     22 F           1.9996    7.8612   -0.8907 F       1  UNL1       -0.1993
     23 C           1.9433    6.5421   -0.6848 C.ar    1  UNL1        0.1983
     24 F          -0.3998    6.6268   -0.8281 F       1  UNL1       -0.2003
     25 C           0.7154    5.8973   -0.6704 C.ar    1  UNL1        0.1867
     26 C          -2.6478    1.9248    2.3103 C.ar    1  UNL1        0.1294
     27 F          -1.8931    3.7779    3.5305 F       1  UNL1       -0.2003
     28 C          -2.3707    2.5127    3.5587 C.ar    1  UNL1        0.1871
     29 F          -2.3045    2.4787    5.9162 F       1  UNL1       -0.1993
     30 C          -2.5730    1.8656    4.7593 C.ar    1  UNL1        0.1983
     31 F          -3.2735   -0.0836    5.9153 F       1  UNL1       -0.1993
     32 C          -3.0671    0.5599    4.7614 C.ar    1  UNL1        0.1992
     33 F          -3.7709   -1.3307    3.5363 F       1  UNL1       -0.1993
     34 C          -3.3280   -0.0689    3.5469 C.ar    1  UNL1        0.1983
     35 F          -3.3411   -0.0576    1.1985 F       1  UNL1       -0.2003
     36 C          -3.1236    0.5992    2.3495 C.ar    1  UNL1        0.1871
@<TRIPOS>BOND
     1    10     7    1
     2     8     7    1
     3     9     7    1
     4     7     3    1
     5     5     4    1
     6     3     4    1
     7     3     1    1
     8     4     6    2
     9    22    23    1
    10    24    25    1
    11    23    25   ar
    12    23    21   ar
    13    25    15   ar
    14    20    21    1
    15    21    19   ar
    16    15     1    1
    17    15    17   ar
    18    14    11    1
    19    19    17   ar
    20    19    18    1
    21    17    16    1
    22    13    11    1
    23     6    11    1
    24     6     2    1
    25    11    12    1
    26     2    26    1
    27    35    36    1
    28    26    36   ar
    29    26    28   ar
    30    36    34   ar
    31    27    28    1
    32    33    34    1
    33    34    32   ar
    34    28    30   ar
    35    30    32   ar
    36    30    29    1
    37    32    31    1
