@<TRIPOS>MOLECULE
1,30
 54 55 0 0 0
SMALL
GASTEIGER

@<TRIPOS>ATOM
      1 N           0.6225    0.5076    2.6755 N.pl3   1  UNL1       -0.2372
      2 C           0.5512   -0.8081    2.6697 C.3     1  UNL1        0.0968
      3 C          -0.6097   -1.4682    3.0649 C.2     1  UNL1       -0.0383
      4 H          -0.6097   -2.5461    3.0646 H       1  UNL1        0.0610
      5 C           1.7050   -1.6581    2.1973 C.3     1  UNL1       -0.0359
      6 H           2.5308   -1.0426    1.8501 H       1  UNL1        0.0255
      7 H           1.3718   -2.2955    1.3796 H       1  UNL1        0.0255
      8 H           2.0554   -2.3047    2.9997 H       1  UNL1        0.0255
      9 C           1.8426    1.1826    2.5566 C.ar    1  UNL1        0.0546
     10 C           2.0782    2.0171    1.4522 C.ar    1  UNL1       -0.0274
     11 C           3.2746    2.7094    1.3595 C.ar    1  UNL1       -0.0541
     12 H           3.4466    3.3427    0.4999 H       1  UNL1        0.0623
     13 C           4.2565    2.6022    2.3336 C.ar    1  UNL1       -0.0498
     14 C           4.0152    1.7710    3.4179 C.ar    1  UNL1       -0.0541
     15 H           4.7702    1.6725    4.1861 H       1  UNL1        0.0623
     16 C           2.8353    1.0576    3.5469 C.ar    1  UNL1       -0.0274
     17 C           2.6467    0.1686    4.7414 C.3     1  UNL1       -0.0379
     18 H           3.0279    0.6559    5.6363 H       1  UNL1        0.0278
     19 H           3.1968   -0.7637    4.6110 H       1  UNL1        0.0278
     20 H           1.5967   -0.0705    4.8894 H       1  UNL1        0.0278
     21 C           1.0508    2.1550    0.3711 C.3     1  UNL1       -0.0379
     22 H           1.5263    2.2036   -0.6066 H       1  UNL1        0.0278
     23 H           0.4840    3.0715    0.5252 H       1  UNL1        0.0278
     24 H           0.3578    1.3162    0.3924 H       1  UNL1        0.0278
     25 C           5.5316    3.3841    2.2345 C.3     1  UNL1       -0.0397
     26 H           5.7673    3.6134    1.1977 H       1  UNL1        0.0278
     27 H           6.3610    2.8325    2.6721 H       1  UNL1        0.0278
     28 H           5.4322    4.3267    2.7746 H       1  UNL1        0.0278
     29 C          -1.7706   -0.8084    3.4605 C.2     1  UNL1        0.0264
     30 N          -1.8420    0.5073    3.4555 N.pl3   1  UNL1       -0.2193
     31 C          -3.0619    1.1825    3.5747 C.ar    1  UNL1        0.0591
     32 C          -3.2974    2.0167    4.6793 C.ar    1  UNL1       -0.0270
     33 C          -4.4936    2.7094    4.7719 C.ar    1  UNL1       -0.0541
     34 H          -4.6656    3.3426    5.6315 H       1  UNL1        0.0623
     35 C          -5.4754    2.6027    3.7976 C.ar    1  UNL1       -0.0498
     36 C          -5.2344    1.7715    2.7132 C.ar    1  UNL1       -0.0541
     37 H          -5.9894    1.6733    1.9451 H       1  UNL1        0.0623
     38 C          -4.0546    1.0579    2.5843 C.ar    1  UNL1       -0.0270
     39 C          -3.8662    0.1687    1.3898 C.3     1  UNL1       -0.0379
     40 H          -4.2484    0.6555    0.4951 H       1  UNL1        0.0278
     41 H          -4.4155   -0.7640    1.5208 H       1  UNL1        0.0278
     42 H          -2.8161   -0.0696    1.2411 H       1  UNL1        0.0278
     43 C          -6.7503    3.3850    3.8966 C.3     1  UNL1       -0.0397
     44 H          -6.9860    3.6144    4.9333 H       1  UNL1        0.0278
     45 H          -7.5798    2.8336    3.4590 H       1  UNL1        0.0278
     46 H          -6.6507    4.3275    3.3565 H       1  UNL1        0.0278
     47 C          -2.2703    2.1537    5.7608 C.3     1  UNL1       -0.0379
     48 H          -2.7463    2.2017    6.7383 H       1  UNL1        0.0278
     49 H          -1.7032    3.0701    5.6077 H       1  UNL1        0.0278
     50 H          -1.5776    1.3147    5.7392 H       1  UNL1        0.0278
     51 C          -2.9243   -1.6587    3.9326 C.3     1  UNL1       -0.0248
     52 H          -3.7507   -1.0437    4.2788 H       1  UNL1        0.0290
     53 H          -2.5914   -2.2955    4.7510 H       1  UNL1        0.0290
     54 H          -3.2736   -2.3061    3.1303 H       1  UNL1        0.0290
@<TRIPOS>BOND
     1    22    21    1
     2    21    24    1
     3    21    23    1
     4    21    10    1
     5    40    39    1
     6    12    11    1
     7    26    25    1
     8    42    39    1
     9    11    10   ar
    10    11    13   ar
    11     7     5    1
    12    39    41    1
    13    39    38    1
    14    10     9   ar
    15     6     5    1
    16    37    36    1
    17     5     2    1
    18     5     8    1
    19    25    13    1
    20    25    27    1
    21    25    28    1
    22    13    14   ar
    23     9     1    1
    24     9    16   ar
    25    38    36   ar
    26    38    31   ar
    27     2     1    1
    28     2     3    1
    29    36    35   ar
    30     4     3    1
    31     3    29    2
    32    54    51    1
    33    46    43    1
    34    14    16   ar
    35    14    15    1
    36    30    29    1
    37    30    31    1
    38    45    43    1
    39    29    51    1
    40    16    17    1
    41    31    32   ar
    42    35    43    1
    43    35    33   ar
    44    43    44    1
    45    51    52    1
    46    51    53    1
    47    19    17    1
    48    32    33   ar
    49    32    47    1
    50    17    20    1
    51    17    18    1
    52    33    34    1
    53    49    47    1
    54    50    47    1
    55    47    48    1
