@<TRIPOS>MOLECULE
1,2
 48 49 0 0 0
SMALL
GASTEIGER

@<TRIPOS>ATOM
      1 N          10.2959    3.8038    2.2697 N.pl3   1  UNL1       -0.2372
      2 N           8.7580    3.0961    0.3072 N.pl3   1  UNL1       -0.2193
      3 C          11.3101    3.6279    1.4468 C.3     1  UNL1        0.0968
      4 C          11.1072    3.2496    0.1220 C.2     1  UNL1       -0.0383
      5 H          11.9699    3.1424   -0.5152 H       1  UNL1        0.0610
      6 C           9.8497    3.0092   -0.4259 C.2     1  UNL1        0.0264
      7 C          12.7371    3.7943    1.9082 C.3     1  UNL1       -0.0359
      8 H          13.2107    4.6240    1.3866 H       1  UNL1        0.0255
      9 H          13.3002    2.8920    1.6754 H       1  UNL1        0.0255
     10 H          12.7860    3.9755    2.9786 H       1  UNL1        0.0255
     11 C           9.7880    2.6894   -1.8994 C.3     1  UNL1       -0.0248
     12 H           8.7600    2.6110   -2.2431 H       1  UNL1        0.0290
     13 H          10.3047    1.7543   -2.1075 H       1  UNL1        0.0290
     14 H          10.2891    3.4766   -2.4604 H       1  UNL1        0.0290
     15 C          10.4532    4.4470    3.5031 C.ar    1  UNL1        0.0546
     16 C          10.8247    5.8038    3.5623 C.ar    1  UNL1       -0.0276
     17 C          10.9430    6.4199    4.7985 C.ar    1  UNL1       -0.0570
     18 H          11.2254    7.4626    4.8382 H       1  UNL1        0.0621
     19 C          10.7120    5.7247    5.9711 C.ar    1  UNL1       -0.0611
     20 H          10.8138    6.2200    6.9252 H       1  UNL1        0.0618
     21 C          10.3513    4.3906    5.9120 C.ar    1  UNL1       -0.0570
     22 H          10.1779    3.8382    6.8246 H       1  UNL1        0.0621
     23 C          10.2183    3.7410    4.6949 C.ar    1  UNL1       -0.0276
     24 C           9.8346    2.2940    4.6556 C.3     1  UNL1       -0.0379
     25 H          10.2849    1.7545    5.4863 H       1  UNL1        0.0278
     26 H          10.1489    1.8391    3.7184 H       1  UNL1        0.0278
     27 H           8.7522    2.2058    4.7326 H       1  UNL1        0.0278
     28 C          11.0938    6.6017    2.3201 C.3     1  UNL1       -0.0379
     29 H          12.1670    6.7290    2.1762 H       1  UNL1        0.0278
     30 H          10.6521    7.5921    2.4082 H       1  UNL1        0.0278
     31 H          10.6848    6.1098    1.4412 H       1  UNL1        0.0278
     32 C           7.5269    2.6051   -0.1410 C.ar    1  UNL1        0.0591
     33 C           7.3452    1.2295   -0.3824 C.ar    1  UNL1       -0.0272
     34 C           6.1032    0.7729   -0.7949 C.ar    1  UNL1       -0.0570
     35 H           5.9686   -0.2843   -0.9759 H       1  UNL1        0.0621
     36 C           5.0448    1.6429   -0.9822 C.ar    1  UNL1       -0.0611
     37 H           4.0858    1.2693   -1.3091 H       1  UNL1        0.0618
     38 C           5.2255    2.9943   -0.7496 C.ar    1  UNL1       -0.0570
     39 H           4.4056    3.6819   -0.9024 H       1  UNL1        0.0621
     40 C           6.4509    3.4886   -0.3314 C.ar    1  UNL1       -0.0272
     41 C           6.6236    4.9579   -0.0977 C.3     1  UNL1       -0.0379
     42 H           6.0792    5.5316   -0.8453 H       1  UNL1        0.0278
     43 H           7.6766    5.2308   -0.1323 H       1  UNL1        0.0278
     44 H           6.2343    5.2163    0.8854 H       1  UNL1        0.0278
     45 C           8.4628    0.2434   -0.2067 C.3     1  UNL1       -0.0379
     46 H           8.8708   -0.0436   -1.1763 H       1  UNL1        0.0278
     47 H           8.0942   -0.6589    0.2767 H       1  UNL1        0.0278
     48 H           9.2661    0.6624    0.3938 H       1  UNL1        0.0278
@<TRIPOS>BOND
     1    14    11    1
     2    12    11    1
     3    13    11    1
     4    11     6    1
     5    37    36    1
     6    46    45    1
     7    36    34   ar
     8    36    38   ar
     9    35    34    1
    10    39    38    1
    11    42    41    1
    12    34    33   ar
    13    38    40   ar
    14     5     4    1
    15     6     4    2
    16     6     2    1
    17    33    45    1
    18    33    32   ar
    19    40    32   ar
    20    40    41    1
    21    45    47    1
    22    45    48    1
    23    32     2    1
    24    43    41    1
    25    41    44    1
    26     4     3    1
    27     8     7    1
    28    31    28    1
    29     3     7    1
    30     3     1    1
    31     9     7    1
    32     7    10    1
    33    29    28    1
    34     1    15    1
    35    28    30    1
    36    28    16    1
    37    15    16   ar
    38    15    23   ar
    39    16    17   ar
    40    26    24    1
    41    24    23    1
    42    24    27    1
    43    24    25    1
    44    23    21   ar
    45    17    18    1
    46    17    19   ar
    47    21    19   ar
    48    21    22    1
    49    19    20    1
