@<TRIPOS>MOLECULE
3,4
 38 38 0 0 0
SMALL
GASTEIGER

@<TRIPOS>ATOM
      1 SI          2.6089   28.1039    5.6348 Si      1  UNL1        0.0000
      2 SI          7.1226   24.4135    7.4339 Si      1  UNL1        0.0000
      3 N           4.0110   27.2413    6.1596 N.pl3   1  UNL1        0.0000
      4 N           6.1993   25.8368    7.0722 N.pl3   1  UNL1        0.0000
      5 C           4.8573   26.6900    5.2393 C.ar    1  UNL1        0.0000
      6 C           6.0677   26.1006    5.7067 C.ar    1  UNL1        0.0000
      7 C           7.0314   25.7273    4.7721 C.ar    1  UNL1        0.0000
      8 H           7.9848   25.3650    5.1242 H       1  UNL1        0.0000
      9 C           6.8042   25.8083    3.4092 C.ar    1  UNL1        0.0000
     10 H           7.5783   25.5178    2.7136 H       1  UNL1        0.0000
     11 C           5.5627   26.2202    2.9579 C.ar    1  UNL1        0.0000
     12 H           5.3385   26.2244    1.9005 H       1  UNL1        0.0000
     13 C           4.6099   26.6476    3.8615 C.ar    1  UNL1        0.0000
     14 H           3.6493   26.9696    3.4958 H       1  UNL1        0.0000
     15 C           1.7380   29.0354    7.0551 C.3     1  UNL1        0.0000
     16 H           2.2274   28.8685    8.0041 H       1  UNL1        0.0000
     17 H           0.7015   28.7325    7.1552 H       1  UNL1        0.0000
     18 H           1.7404   30.1038    6.8693 H       1  UNL1        0.0000
     19 C           1.3198   26.9085    4.8322 C.3     1  UNL1        0.0000
     20 H           1.1529   27.1610    3.7896 H       1  UNL1        0.0000
     21 H           0.3549   26.9621    5.3285 H       1  UNL1        0.0000
     22 H           1.6487   25.8733    4.8630 H       1  UNL1        0.0000
     23 C           2.9031   29.5167    4.3527 C.3     1  UNL1        0.0000
     24 H           3.3847   30.3782    4.8092 H       1  UNL1        0.0000
     25 H           1.9449   29.8564    3.9685 H       1  UNL1        0.0000
     26 H           3.5027   29.2148    3.5000 H       1  UNL1        0.0000
     27 C           6.6666   23.7310    9.1599 C.3     1  UNL1        0.0000
     28 H           6.2424   24.5145    9.7775 H       1  UNL1        0.0000
     29 H           7.5405   23.3305    9.6625 H       1  UNL1        0.0000
     30 H           5.9466   22.9225    9.0915 H       1  UNL1        0.0000
     31 C           6.7310   22.9923    6.1982 C.3     1  UNL1        0.0000
     32 H           5.9474   23.2818    5.5047 H       1  UNL1        0.0000
     33 H           6.4132   22.0852    6.7044 H       1  UNL1        0.0000
     34 H           7.6011   22.7375    5.6025 H       1  UNL1        0.0000
     35 C           9.0441   24.6325    7.4224 C.3     1  UNL1        0.0000
     36 H           9.4821   24.1265    6.5670 H       1  UNL1        0.0000
     37 H           9.5015   24.2062    8.3100 H       1  UNL1        0.0000
     38 H           9.3487   25.6735    7.3683 H       1  UNL1        0.0000
@<TRIPOS>BOND
     1    12    11    1
     2    10     9    1
     3    11     9   ar
     4    11    13   ar
     5     9     7   ar
     6    14    13    1
     7    26    23    1
     8    20    19    1
     9    13     5   ar
    10    25    23    1
    11    23    24    1
    12    23     1    1
    13     7     8    1
    14     7     6   ar
    15    19    22    1
    16    19    21    1
    17    19     1    1
    18     5     6   ar
    19     5     3    1
    20    32    31    1
    21    34    31    1
    22     1     3    1
    23     1    15    1
    24     6     4    1
    25    31    33    1
    26    31     2    1
    27    36    35    1
    28    18    15    1
    29    15    17    1
    30    15    16    1
    31     4     2    1
    32    38    35    1
    33    35     2    1
    34    35    37    1
    35     2    27    1
    36    30    27    1
    37    27    29    1
    38    27    28    1
