@<TRIPOS>MOLECULE
4,6
 54 53 0 0 0
SMALL
GASTEIGER

@<TRIPOS>ATOM
      1 SI         11.2820   -0.2853    3.0434 Si      1  UNL1        0.0000
      2 SI          5.8962    1.2643    4.8211 Si      1  UNL1        0.0000
      3 SI          7.0762    2.8060    0.2883 Si      1  UNL1        0.0000
      4 N          10.0696    0.7525    3.6825 N.3     1  UNL1        0.0000
      5 N           7.1173    0.5285    3.7947 N.3     1  UNL1        0.0000
      6 N           7.9435    1.8083    1.4049 N.3     1  UNL1        0.0000
      7 C          12.8972   -0.1560    4.0758 C.3     1  UNL1        0.0000
      8 C          10.8189   -2.1565    3.0611 C.3     1  UNL1        0.0000
      9 C          11.6769    0.1521    1.2238 C.3     1  UNL1        0.0000
     10 C           9.3473    0.3160    4.8413 C.3     1  UNL1        0.0000
     11 C           8.0402   -0.3902    4.4505 C.3     1  UNL1        0.0000
     12 C           6.6297    1.8326    6.4873 C.3     1  UNL1        0.0000
     13 C           4.5261   -0.0231    5.2183 C.3     1  UNL1        0.0000
     14 C           5.1181    2.7344    3.8903 C.3     1  UNL1        0.0000
     15 C           6.6516    0.0762    2.4935 C.3     1  UNL1        0.0000
     16 C           7.6643    0.4004    1.3849 C.3     1  UNL1        0.0000
     17 C           5.2101    2.3861    0.1093 C.3     1  UNL1        0.0000
     18 C           7.2584    4.6286    0.8196 C.3     1  UNL1        0.0000
     19 C           7.7847    2.5500   -1.4914 C.3     1  UNL1        0.0000
     20 H          12.7130   -0.3571    5.1272 H       1  UNL1        0.0000
     21 H          13.3374    0.8334    4.0024 H       1  UNL1        0.0000
     22 H          13.6364   -0.8716    3.7310 H       1  UNL1        0.0000
     23 H          10.0057   -2.3891    2.3781 H       1  UNL1        0.0000
     24 H          10.5174   -2.4771    4.0543 H       1  UNL1        0.0000
     25 H          11.6687   -2.7664    2.7706 H       1  UNL1        0.0000
     26 H          10.7937    0.4689    0.6734 H       1  UNL1        0.0000
     27 H          12.0975   -0.7091    0.7147 H       1  UNL1        0.0000
     28 H          12.4084    0.9507    1.1657 H       1  UNL1        0.0000
     29 H           9.0998    1.1786    5.4729 H       1  UNL1        0.0000
     30 H           9.9429   -0.3793    5.4507 H       1  UNL1        0.0000
     31 H           8.2920   -1.2065    3.7683 H       1  UNL1        0.0000
     32 H           7.5887   -0.8337    5.3484 H       1  UNL1        0.0000
     33 H           7.1034    1.0175    7.0252 H       1  UNL1        0.0000
     34 H           5.8370    2.2201    7.1199 H       1  UNL1        0.0000
     35 H           7.3624    2.6225    6.3632 H       1  UNL1        0.0000
     36 H           4.0648   -0.4059    4.3120 H       1  UNL1        0.0000
     37 H           3.7386    0.4129    5.8243 H       1  UNL1        0.0000
     38 H           4.9205   -0.8749    5.7658 H       1  UNL1        0.0000
     39 H           4.1768    2.4555    3.4265 H       1  UNL1        0.0000
     40 H           5.7860    3.1004    3.1159 H       1  UNL1        0.0000
     41 H           4.9063    3.5541    4.5692 H       1  UNL1        0.0000
     42 H           5.7264    0.6020    2.2533 H       1  UNL1        0.0000
     43 H           6.4356   -1.0036    2.5030 H       1  UNL1        0.0000
     44 H           8.5917   -0.1594    1.5649 H       1  UNL1        0.0000
     45 H           7.2505    0.0617    0.4225 H       1  UNL1        0.0000
     46 H           5.0663    1.3420   -0.1541 H       1  UNL1        0.0000
     47 H           4.7670    2.9836   -0.6817 H       1  UNL1        0.0000
     48 H           4.6469    2.5800    1.0152 H       1  UNL1        0.0000
     49 H           6.4790    4.9245    1.5134 H       1  UNL1        0.0000
     50 H           7.1873    5.2818   -0.0435 H       1  UNL1        0.0000
     51 H           8.2161    4.8044    1.3002 H       1  UNL1        0.0000
     52 H           8.4219    1.6702   -1.5430 H       1  UNL1        0.0000
     53 H           8.3764    3.4001   -1.8179 H       1  UNL1        0.0000
     54 H           6.9885    2.4169   -2.2176 H       1  UNL1        0.0000
@<TRIPOS>BOND
     1    54    19    1
     2    53    19    1
     3    52    19    1
     4    19     3    1
     5    47    17    1
     6    46    17    1
     7    50    18    1
     8    17     3    1
     9    17    48    1
    10     3    18    1
    11     3     6    1
    12    45    16    1
    13    26     9    1
    14    27     9    1
    15    18    51    1
    16    18    49    1
    17    28     9    1
    18     9     1    1
    19    16     6    1
    20    16    44    1
    21    16    15    1
    22    42    15    1
    23    23     8    1
    24    15    43    1
    25    15     5    1
    26    25     8    1
    27     1     8    1
    28     1     4    1
    29     1     7    1
    30     8    24    1
    31    40    14    1
    32    39    14    1
    33     4    10    1
    34    22     7    1
    35    31    11    1
    36     5    11    1
    37     5     2    1
    38    14    41    1
    39    14     2    1
    40    21     7    1
    41     7    20    1
    42    36    13    1
    43    11    10    1
    44    11    32    1
    45     2    13    1
    46     2    12    1
    47    10    30    1
    48    10    29    1
    49    13    38    1
    50    13    37    1
    51    35    12    1
    52    12    33    1
    53    12    34    1
