@<TRIPOS>MOLECULE
2,3
 69 70 0 0 0
SMALL
GASTEIGER

@<TRIPOS>ATOM
      1 SI          8.2687    5.7990    4.7526 Si      1  UNL1        0.0000
      2 N           8.4936    5.9363    3.0351 N.pl3   1  UNL1        0.0000
      3 N           7.7231    7.4476    4.8236 N.pl3   1  UNL1        0.0000
      4 C           7.0574    4.3927    5.2550 C.3     1  UNL1        0.0000
      5 H           7.0005    4.2998    6.3344 H       1  UNL1        0.0000
      6 H           7.4226    3.4456    4.8687 H       1  UNL1        0.0000
      7 H           6.0505    4.5382    4.8804 H       1  UNL1        0.0000
      8 C           9.7883    5.4406    5.8754 C.3     1  UNL1        0.0000
      9 H           9.5291    5.6440    6.9102 H       1  UNL1        0.0000
     10 H          10.6571    6.0410    5.6279 H       1  UNL1        0.0000
     11 H          10.0777    4.3969    5.8155 H       1  UNL1        0.0000
     12 C           8.7684    4.9930    2.0648 C.ar    1  UNL1        0.0000
     13 C          10.0980    4.6090    1.7711 C.ar    1  UNL1        0.0000
     14 C          10.3416    3.7059    0.7484 C.ar    1  UNL1        0.0000
     15 H          11.3579    3.4108    0.5310 H       1  UNL1        0.0000
     16 C           9.3096    3.1695    0.0013 C.ar    1  UNL1        0.0000
     17 H           9.5183    2.4681   -0.7931 H       1  UNL1        0.0000
     18 C           8.0059    3.5290    0.2916 C.ar    1  UNL1        0.0000
     19 H           7.1992    3.0939   -0.2813 H       1  UNL1        0.0000
     20 C           7.7168    4.4245    1.3084 C.ar    1  UNL1        0.0000
     21 C          11.2477    5.1590    2.5837 C.3     1  UNL1        0.0000
     22 H          10.8326    5.8803    3.2966 H       1  UNL1        0.0000
     23 C          11.9191    4.0224    3.3597 C.3     1  UNL1        0.0000
     24 H          12.6474    4.4199    4.0632 H       1  UNL1        0.0000
     25 H          12.4324    3.3464    2.6791 H       1  UNL1        0.0000
     26 H          11.1770    3.4514    3.9122 H       1  UNL1        0.0000
     27 C          12.2794    5.8938    1.7230 C.3     1  UNL1        0.0000
     28 H          13.1458    6.1480    2.3300 H       1  UNL1        0.0000
     29 H          11.8637    6.8194    1.3325 H       1  UNL1        0.0000
     30 H          12.6137    5.2789    0.8904 H       1  UNL1        0.0000
     31 C           6.2793    4.7733    1.6229 C.3     1  UNL1        0.0000
     32 H           6.2850    5.5103    2.4439 H       1  UNL1        0.0000
     33 C           5.5108    3.5301    2.0796 C.3     1  UNL1        0.0000
     34 H           6.0303    3.0373    2.8966 H       1  UNL1        0.0000
     35 H           5.4117    2.8195    1.2615 H       1  UNL1        0.0000
     36 H           4.5131    3.8061    2.4151 H       1  UNL1        0.0000
     37 C           5.5796    5.4056    0.4177 C.3     1  UNL1        0.0000
     38 H           6.1232    6.2890    0.0962 H       1  UNL1        0.0000
     39 H           4.5700    5.7073    0.6885 H       1  UNL1        0.0000
     40 H           5.5205    4.7038   -0.4123 H       1  UNL1        0.0000
     41 C           7.3950    8.2723    5.8817 C.ar    1  UNL1        0.0000
     42 C           8.3644    9.1284    6.4545 C.ar    1  UNL1        0.0000
     43 C           8.0037    9.9781    7.4885 C.ar    1  UNL1        0.0000
     44 H           8.7476   10.6256    7.9303 H       1  UNL1        0.0000
     45 C           6.7087   10.0101    7.9729 C.ar    1  UNL1        0.0000
     46 H           6.4456   10.6750    8.7824 H       1  UNL1        0.0000
     47 C           5.7566    9.1760    7.4168 C.ar    1  UNL1        0.0000
     48 H           4.7481    9.1974    7.8035 H       1  UNL1        0.0000
     49 C           6.0736    8.3117    6.3815 C.ar    1  UNL1        0.0000
     50 C           9.7905    9.1166    5.9509 C.3     1  UNL1        0.0000
     51 H           9.8512    8.3797    5.1348 H       1  UNL1        0.0000
     52 C          10.2072   10.4810    5.3924 C.3     1  UNL1        0.0000
     53 H          11.2339   10.4332    5.0361 H       1  UNL1        0.0000
     54 H          10.1412   11.2527    6.1572 H       1  UNL1        0.0000
     55 H           9.5754   10.7592    4.5523 H       1  UNL1        0.0000
     56 C          10.7536    8.7016    7.0672 C.3     1  UNL1        0.0000
     57 H          11.7567    8.5672    6.6677 H       1  UNL1        0.0000
     58 H          10.4324    7.7699    7.5242 H       1  UNL1        0.0000
     59 H          10.7945    9.4644    7.8418 H       1  UNL1        0.0000
     60 C           5.0164    7.3947    5.8093 C.3     1  UNL1        0.0000
     61 H           5.4700    6.8527    4.9694 H       1  UNL1        0.0000
     62 C           4.5781    6.3861    6.8748 C.3     1  UNL1        0.0000
     63 H           5.4435    5.8826    7.2972 H       1  UNL1        0.0000
     64 H           3.9158    5.6381    6.4435 H       1  UNL1        0.0000
     65 H           4.0480    6.8899    7.6803 H       1  UNL1        0.0000
     66 C           3.8003    8.1569    5.2755 C.3     1  UNL1        0.0000
     67 H           3.0237    7.4511    4.9875 H       1  UNL1        0.0000
     68 H           4.0638    8.7361    4.3937 H       1  UNL1        0.0000
     69 H           3.3905    8.8283    6.0266 H       1  UNL1        0.0000
@<TRIPOS>BOND
     1    17    16    1
     2    40    37    1
     3    19    18    1
     4    16    18   ar
     5    16    14   ar
     6    38    37    1
     7    18    20   ar
     8    37    39    1
     9    37    31    1
    10    15    14    1
    11    14    13   ar
    12    30    27    1
    13    35    33    1
    14    20    31    1
    15    20    12   ar
    16    29    27    1
    17    31    33    1
    18    31    32    1
    19    27    28    1
    20    27    21    1
    21    13    12   ar
    22    13    21    1
    23    12     2    1
    24    33    36    1
    25    33    34    1
    26    21    22    1
    27    21    23    1
    28    25    23    1
    29     2     1    1
    30    23    26    1
    31    23    24    1
    32    68    66    1
    33    55    52    1
    34     1     3    1
    35     1     4    1
    36     1     8    1
    37     3    41    1
    38     6     4    1
    39     7     4    1
    40    61    60    1
    41    67    66    1
    42    53    52    1
    43    51    50    1
    44     4     5    1
    45    66    60    1
    46    66    69    1
    47    52    50    1
    48    52    54    1
    49    10     8    1
    50    60    49    1
    51    60    62    1
    52    11     8    1
    53     8     9    1
    54    41    49   ar
    55    41    42   ar
    56    50    42    1
    57    50    56    1
    58    49    47   ar
    59    64    62    1
    60    42    43   ar
    61    57    56    1
    62    62    63    1
    63    62    65    1
    64    56    58    1
    65    56    59    1
    66    47    48    1
    67    47    45   ar
    68    43    44    1
    69    43    45   ar
    70    45    46    1
