@<TRIPOS>MOLECULE
3,4
 46 46 0 0 0
SMALL
GASTEIGER

@<TRIPOS>ATOM
      1 SI          1.7553    5.6585    2.8369 Si      1  UNL1        0.0000
      2 SI          4.4114    1.0109    1.7979 Si      1  UNL1        0.0000
      3 N           2.9862    4.4324    3.0089 N.3     1  UNL1        0.0000
      4 N           3.9525    2.4354    2.6545 N.3     1  UNL1        0.0000
      5 C           3.0821    3.3172    2.2932 C.3     1  UNL1        0.0000
      6 C           2.1608    6.8302    1.3705 C.3     1  UNL1        0.0000
      7 H           3.2177    6.8002    1.1227 H       1  UNL1        0.0000
      8 H           1.9052    7.8566    1.6132 H       1  UNL1        0.0000
      9 H           1.6015    6.5546    0.4809 H       1  UNL1        0.0000
     10 C           1.7765    6.5963    4.5040 C.3     1  UNL1        0.0000
     11 H           2.2237    5.9859    5.2839 H       1  UNL1        0.0000
     12 H           0.7730    6.8683    4.8148 H       1  UNL1        0.0000
     13 H           2.3568    7.5106    4.4321 H       1  UNL1        0.0000
     14 C          -0.0117    4.9833    2.5294 C.3     1  UNL1        0.0000
     15 H          -0.1359    4.6290    1.5113 H       1  UNL1        0.0000
     16 H          -0.7329    5.7790    2.6871 H       1  UNL1        0.0000
     17 H          -0.2724    4.1685    3.1958 H       1  UNL1        0.0000
     18 C           4.8004    1.2929   -0.0558 C.3     1  UNL1        0.0000
     19 H           3.8935    1.4001   -0.6444 H       1  UNL1        0.0000
     20 H           5.3631    0.4601   -0.4670 H       1  UNL1        0.0000
     21 H           5.3924    2.1936   -0.1970 H       1  UNL1        0.0000
     22 C           6.0010    0.4169    2.6686 C.3     1  UNL1        0.0000
     23 H           6.5673    1.2628    3.0471 H       1  UNL1        0.0000
     24 H           6.6394   -0.1338    1.9849 H       1  UNL1        0.0000
     25 H           5.7707   -0.2426    3.5006 H       1  UNL1        0.0000
     26 C           3.0875   -0.3640    1.9365 C.3     1  UNL1        0.0000
     27 H           2.5912   -0.3550    2.9024 H       1  UNL1        0.0000
     28 H           3.5495   -1.3381    1.8127 H       1  UNL1        0.0000
     29 H           2.3264   -0.2620    1.1695 H       1  UNL1        0.0000
     30 C           2.2645    3.1598    1.0634 C.ar    1  UNL1        0.0000
     31 C           2.6211    3.8582   -0.0842 C.ar    1  UNL1        0.0000
     32 H           3.4739    4.5218   -0.0586 H       1  UNL1        0.0000
     33 C           1.9068    3.6790   -1.2540 C.ar    1  UNL1        0.0000
     34 H           2.1955    4.2206   -2.1437 H       1  UNL1        0.0000
     35 C           0.8242    2.8096   -1.3033 C.ar    1  UNL1        0.0000
     36 C           0.4752    2.1165   -0.1511 C.ar    1  UNL1        0.0000
     37 H          -0.3652    1.4367   -0.1726 H       1  UNL1        0.0000
     38 C           1.1875    2.2847    1.0217 C.ar    1  UNL1        0.0000
     39 H           0.9014    1.7418    1.9104 H       1  UNL1        0.0000
     40 C           0.0844    2.5780   -2.5898 C.3     1  UNL1        0.0000
     41 H          -0.9580    2.3301   -2.3795 H       1  UNL1        0.0000
     42 H           0.1048    3.4848   -3.1975 H       1  UNL1        0.0000
     43 C           0.7276    1.4316   -3.3732 C.3     1  UNL1        0.0000
     44 H           0.1955    1.2613   -4.3063 H       1  UNL1        0.0000
     45 H           0.7056    0.5147   -2.7883 H       1  UNL1        0.0000
     46 H           1.7649    1.6657   -3.6019 H       1  UNL1        0.0000
@<TRIPOS>BOND
     1    44    43    1
     2    46    43    1
     3    43    45    1
     4    43    40    1
     5    42    40    1
     6    40    41    1
     7    40    35    1
     8    34    33    1
     9    35    33   ar
    10    35    36   ar
    11    33    31   ar
    12    19    18    1
    13    20    18    1
    14    21    18    1
    15    37    36    1
    16    36    38   ar
    17    31    32    1
    18    31    30   ar
    19    18     2    1
    20     9     6    1
    21    38    30   ar
    22    38    39    1
    23    30     5    1
    24     7     6    1
    25    29    26    1
    26     6     8    1
    27     6     1    1
    28    15    14    1
    29     2    26    1
    30     2     4    1
    31     2    22    1
    32    28    26    1
    33    26    27    1
    34    24    22    1
    35     5     4    1
    36     5     3    1
    37    14    16    1
    38    14     1    1
    39    14    17    1
    40    22    23    1
    41    22    25    1
    42     1     3    1
    43     1    10    1
    44    13    10    1
    45    10    12    1
    46    10    11    1
