@<TRIPOS>MOLECULE
3,4
 46 46 0 0 0
SMALL
GASTEIGER

@<TRIPOS>ATOM
      1 SI          2.9768    2.3574    6.0714 Si      1  UNL1        0.0000
      2 SI          8.0039    3.9305    4.5926 Si      1  UNL1        0.0000
      3 N           4.2599    3.2616    5.3340 N.3     1  UNL1        0.0000
      4 N           6.2952    3.6199    4.6146 N.3     1  UNL1        0.0000
      5 C           5.5386    3.0102    5.4865 C.3     1  UNL1        0.0000
      6 C           2.6247    2.9116    7.8760 C.3     1  UNL1        0.0000
      7 H           3.3108    2.4537    8.5802 H       1  UNL1        0.0000
      8 H           1.6218    2.6075    8.1577 H       1  UNL1        0.0000
      9 H           2.6842    3.9884    8.0016 H       1  UNL1        0.0000
     10 C           1.3498    2.6461    5.1245 C.3     1  UNL1        0.0000
     11 H           1.0561    3.6899    5.1524 H       1  UNL1        0.0000
     12 H           0.5483    2.0604    5.5651 H       1  UNL1        0.0000
     13 H           1.4442    2.3542    4.0848 H       1  UNL1        0.0000
     14 C           3.3467    0.4777    6.0722 C.3     1  UNL1        0.0000
     15 H           3.7752    0.1696    5.1227 H       1  UNL1        0.0000
     16 H           2.4393   -0.0979    6.2299 H       1  UNL1        0.0000
     17 H           4.0479    0.2047    6.8552 H       1  UNL1        0.0000
     18 C           8.8732    3.5971    6.2664 C.3     1  UNL1        0.0000
     19 H           8.3337    4.0363    7.0992 H       1  UNL1        0.0000
     20 H           9.8665    4.0324    6.2505 H       1  UNL1        0.0000
     21 H           8.9818    2.5379    6.4705 H       1  UNL1        0.0000
     22 C           8.8587    2.8916    3.2309 C.3     1  UNL1        0.0000
     23 H           8.9180    1.8374    3.4874 H       1  UNL1        0.0000
     24 H           9.8730    3.2446    3.0738 H       1  UNL1        0.0000
     25 H           8.3311    2.9815    2.2853 H       1  UNL1        0.0000
     26 C           8.2058    5.7933    4.2087 C.3     1  UNL1        0.0000
     27 H           7.6751    6.0469    3.2950 H       1  UNL1        0.0000
     28 H           9.2510    6.0542    4.0747 H       1  UNL1        0.0000
     29 H           7.8067    6.4167    5.0051 H       1  UNL1        0.0000
     30 C           6.0854    2.1614    6.5697 C.ar    1  UNL1        0.0000
     31 C           5.9451    2.5537    7.8957 C.ar    1  UNL1        0.0000
     32 H           5.4393    3.4788    8.1233 H       1  UNL1        0.0000
     33 C           6.4686    1.7775    8.9128 C.ar    1  UNL1        0.0000
     34 H           6.3603    2.0980    9.9396 H       1  UNL1        0.0000
     35 C           7.1314    0.5889    8.6352 C.ar    1  UNL1        0.0000
     36 C           7.2743    0.2056    7.3077 C.ar    1  UNL1        0.0000
     37 H           7.7924   -0.7137    7.0727 H       1  UNL1        0.0000
     38 C           6.7685    0.9858    6.2849 C.ar    1  UNL1        0.0000
     39 H           6.8962    0.6800    5.2591 H       1  UNL1        0.0000
     40 C           7.7362   -0.2298    9.7392 C.3     1  UNL1        0.0000
     41 H           7.1528   -0.1084   10.6540 H       1  UNL1        0.0000
     42 H           7.7276   -1.2867    9.4654 H       1  UNL1        0.0000
     43 C           9.1782    0.2124    9.9978 C.3     1  UNL1        0.0000
     44 H           9.7796    0.0844    9.1007 H       1  UNL1        0.0000
     45 H           9.6194   -0.3757   10.7993 H       1  UNL1        0.0000
     46 H           9.2065    1.2624   10.2798 H       1  UNL1        0.0000
@<TRIPOS>BOND
     1    25    22    1
     2    24    22    1
     3    22    23    1
     4    22     2    1
     5    27    26    1
     6    28    26    1
     7    13    10    1
     8    26     2    1
     9    26    29    1
    10     2     4    1
    11     2    18    1
    12     4     5    1
    13    15    14    1
    14    10    11    1
    15    10    12    1
    16    10     1    1
    17    39    38    1
    18     3     5    1
    19     3     1    1
    20     5    30    1
    21     1    14    1
    22     1     6    1
    23    14    16    1
    24    14    17    1
    25    20    18    1
    26    18    21    1
    27    18    19    1
    28    38    30   ar
    29    38    36   ar
    30    30    31   ar
    31    37    36    1
    32    36    35   ar
    33     6     9    1
    34     6     8    1
    35     6     7    1
    36    31    32    1
    37    31    33   ar
    38    35    33   ar
    39    35    40    1
    40    33    34    1
    41    44    43    1
    42    42    40    1
    43    40    43    1
    44    40    41    1
    45    43    46    1
    46    43    45    1
