@<TRIPOS>MOLECULE
1,2
 72 74 0 0 0
SMALL
GASTEIGER

@<TRIPOS>ATOM
      1 N          -0.2372    3.1687    4.6059 N.pl3   1  UNL1       -0.2142
      2 N           1.4261    2.7201    6.0343 N.pl3   1  UNL1       -0.2142
      3 C          -1.5657    3.1724    4.1549 C.ar    1  UNL1        0.0576
      4 C          -2.1803    4.4218    3.9169 C.ar    1  UNL1       -0.0219
      5 C          -3.4916    4.4634    3.4729 C.ar    1  UNL1       -0.0565
      6 C          -4.1994    3.3015    3.2280 C.ar    1  UNL1       -0.0611
      7 C          -3.5779    2.0819    3.4015 C.ar    1  UNL1       -0.0565
      8 C          -2.2705    1.9911    3.8577 C.ar    1  UNL1       -0.0219
      9 C          -1.4215    5.7091    4.1633 C.3     1  UNL1       -0.0197
     10 C          -1.7453    6.7989    3.1374 C.3     1  UNL1       -0.0586
     11 C          -1.6886    6.2458    5.5734 C.3     1  UNL1       -0.0586
     12 C          -1.6378    0.6208    3.9630 C.3     1  UNL1       -0.0197
     13 C          -2.4385   -0.3071    4.8806 C.3     1  UNL1       -0.0586
     14 C          -1.5246   -0.0176    2.5742 C.3     1  UNL1       -0.0586
     15 C           0.1232    2.6700    5.7828 C.3     1  UNL1        0.2052
     16 C          -0.8481    2.0893    6.7504 C.ar    1  UNL1        0.0011
     17 C          -2.0782    2.6934    6.9958 C.ar    1  UNL1       -0.0547
     18 C          -2.9640    2.1437    7.9055 C.ar    1  UNL1       -0.0614
     19 C          -2.6359    0.9860    8.5899 C.ar    1  UNL1       -0.0617
     20 C          -1.4171    0.3744    8.3488 C.ar    1  UNL1       -0.0614
     21 C          -0.5340    0.9171    7.4342 C.ar    1  UNL1       -0.0547
     22 C           1.9556    2.3822    7.2922 C.ar    1  UNL1        0.0576
     23 C           2.8856    1.3293    7.3737 C.ar    1  UNL1       -0.0219
     24 C           3.3860    0.9578    8.6115 C.ar    1  UNL1       -0.0565
     25 C           3.0170    1.6280    9.7614 C.ar    1  UNL1       -0.0611
     26 C           2.1717    2.7155    9.6675 C.ar    1  UNL1       -0.0565
     27 C           1.6340    3.1107    8.4521 C.ar    1  UNL1       -0.0219
     28 C           3.3645    0.6105    6.1311 C.3     1  UNL1       -0.0197
     29 C           4.8943    0.6356    6.0655 C.3     1  UNL1       -0.0586
     30 C           2.8532   -0.8311    6.0738 C.3     1  UNL1       -0.0586
     31 C           0.7954    4.3676    8.4003 C.3     1  UNL1       -0.0197
     32 C           1.6923    5.5848    8.6491 C.3     1  UNL1       -0.0586
     33 C          -0.3550    4.3445    9.4089 C.3     1  UNL1       -0.0586
     34 H          -3.9759    5.4159    3.3214 H       1  UNL1        0.0621
     35 H          -5.2250    3.3490    2.8931 H       1  UNL1        0.0618
     36 H          -4.1256    1.1777    3.1824 H       1  UNL1        0.0621
     37 H          -0.3444    5.4776    4.0889 H       1  UNL1        0.0344
     38 H          -2.7252    7.2345    3.3201 H       1  UNL1        0.0235
     39 H          -1.7304    6.4046    2.1231 H       1  UNL1        0.0235
     40 H          -1.0098    7.5985    3.2088 H       1  UNL1        0.0235
     41 H          -2.7562    6.3974    5.7281 H       1  UNL1        0.0235
     42 H          -1.1794    7.1976    5.7139 H       1  UNL1        0.0235
     43 H          -1.3228    5.5524    6.3268 H       1  UNL1        0.0235
     44 H          -0.6284    0.7272    4.3736 H       1  UNL1        0.0344
     45 H          -2.6447    0.1691    5.8343 H       1  UNL1        0.0235
     46 H          -1.8800   -1.2227    5.0648 H       1  UNL1        0.0235
     47 H          -3.3872   -0.5767    4.4226 H       1  UNL1        0.0235
     48 H          -2.5109   -0.1932    2.1507 H       1  UNL1        0.0235
     49 H          -1.0058   -0.9713    2.6433 H       1  UNL1        0.0235
     50 H          -0.9742    0.6250    1.8912 H       1  UNL1        0.0235
     51 H          -2.3493    3.6018    6.4836 H       1  UNL1        0.0622
     52 H          -3.9134    2.6276    8.0822 H       1  UNL1        0.0618
     53 H          -3.3263    0.5618    9.3041 H       1  UNL1        0.0618
     54 H          -1.1519   -0.5321    8.8724 H       1  UNL1        0.0618
     55 H           0.4042    0.4215    7.2460 H       1  UNL1        0.0622
     56 H           4.0742    0.1287    8.6813 H       1  UNL1        0.0621
     57 H           3.4048    1.3196   10.7210 H       1  UNL1        0.0618
     58 H           1.9239    3.2681   10.5612 H       1  UNL1        0.0621
     59 H           2.9771    1.1475    5.2522 H       1  UNL1        0.0344
     60 H           5.2601    1.6492    6.2147 H       1  UNL1        0.0235
     61 H           5.2349    0.2842    5.0950 H       1  UNL1        0.0235
     62 H           5.3306   -0.0021    6.8307 H       1  UNL1        0.0235
     63 H           3.1467   -1.3822    6.9651 H       1  UNL1        0.0235
     64 H           3.2657   -1.3391    5.2041 H       1  UNL1        0.0235
     65 H           1.7678   -0.8557    5.9974 H       1  UNL1        0.0235
     66 H           0.3750    4.4668    7.3944 H       1  UNL1        0.0344
     67 H           1.1120    6.5022    8.5674 H       1  UNL1        0.0235
     68 H           2.4974    5.6131    7.9192 H       1  UNL1        0.0235
     69 H           2.1286    5.5408    9.6445 H       1  UNL1        0.0235
     70 H          -0.9220    3.4206    9.3301 H       1  UNL1        0.0235
     71 H          -1.0280    5.1807    9.2277 H       1  UNL1        0.0235
     72 H           0.0197    4.4303   10.4259 H       1  UNL1        0.0235
@<TRIPOS>BOND
     1    50    14    1
     2    39    10    1
     3    48    14    1
     4    14    49    1
     5    14    12    1
     6    35     6    1
     7    10    40    1
     8    10    38    1
     9    10     9    1
    10    36     7    1
    11     6     7   ar
    12     6     5   ar
    13    34     5    1
    14     7     8   ar
    15     5     4   ar
    16     8    12    1
    17     8     3   ar
    18     4     3   ar
    19     4     9    1
    20    12    44    1
    21    12    13    1
    22    37     9    1
    23     3     1    1
    24     9    11    1
    25    47    13    1
    26     1    15    1
    27    13    46    1
    28    13    45    1
    29    61    29    1
    30    64    30    1
    31    59    28    1
    32    11    42    1
    33    11    41    1
    34    11    43    1
    35    15     2    1
    36    15    16    1
    37    65    30    1
    38     2    22    1
    39    29    28    1
    40    29    60    1
    41    29    62    1
    42    30    28    1
    43    30    63    1
    44    28    23    1
    45    51    17    1
    46    16    17   ar
    47    16    21   ar
    48    17    18   ar
    49    55    21    1
    50    22    23   ar
    51    22    27   ar
    52    23    24   ar
    53    66    31    1
    54    21    20   ar
    55    18    52    1
    56    18    19   ar
    57    68    32    1
    58    20    19   ar
    59    20    54    1
    60    31    27    1
    61    31    32    1
    62    31    33    1
    63    27    26   ar
    64    67    32    1
    65    19    53    1
    66    24    56    1
    67    24    25   ar
    68    32    69    1
    69    71    33    1
    70    70    33    1
    71    33    72    1
    72    26    25   ar
    73    26    58    1
    74    25    57    1
