@<TRIPOS>MOLECULE
1,2
 72 74 0 0 0
SMALL
GASTEIGER

@<TRIPOS>ATOM
      1 N           4.8564    4.3308    6.8623 N.pl3   1  UNL1       -0.2142
      2 N           6.4866    3.4794    5.5880 N.pl3   1  UNL1       -0.2142
      3 C           4.2643    5.2250    7.7679 C.ar    1  UNL1        0.0576
      4 C           3.5636    4.6988    8.8777 C.ar    1  UNL1       -0.0219
      5 C           2.9840    5.5721    9.7856 C.ar    1  UNL1       -0.0565
      6 C           3.0473    6.9418    9.6073 C.ar    1  UNL1       -0.0611
      7 C           3.6711    7.4505    8.4876 C.ar    1  UNL1       -0.0565
      8 C           4.2771    6.6184    7.5573 C.ar    1  UNL1       -0.0219
      9 C           3.4672    3.2016    9.0951 C.3     1  UNL1       -0.0197
     10 C           4.7526    2.6498    9.7221 C.3     1  UNL1       -0.0586
     11 C           2.2795    2.7899    9.9687 C.3     1  UNL1       -0.0586
     12 C           4.9006    7.2523    6.3329 C.3     1  UNL1       -0.0197
     13 C           3.8496    8.0241    5.5236 C.3     1  UNL1       -0.0586
     14 C           6.0352    8.2100    6.7068 C.3     1  UNL1       -0.0586
     15 C           6.1541    4.2969    6.5795 C.3     1  UNL1        0.2052
     16 C           7.1638    5.0875    7.3368 C.ar    1  UNL1        0.0011
     17 C           7.0064    5.3180    8.7033 C.ar    1  UNL1       -0.0547
     18 C           7.9482    6.0386    9.4149 C.ar    1  UNL1       -0.0614
     19 C           9.0693    6.5461    8.7810 C.ar    1  UNL1       -0.0617
     20 C           9.2400    6.3202    7.4261 C.ar    1  UNL1       -0.0614
     21 C           8.3006    5.5984    6.7120 C.ar    1  UNL1       -0.0547
     22 C           7.8059    3.1614    5.2233 C.ar    1  UNL1        0.0576
     23 C           8.2460    3.5068    3.9274 C.ar    1  UNL1       -0.0219
     24 C           9.5381    3.1888    3.5407 C.ar    1  UNL1       -0.0565
     25 C          10.3921    2.5125    4.3922 C.ar    1  UNL1       -0.0611
     26 C           9.9449    2.1324    5.6407 C.ar    1  UNL1       -0.0565
     27 C           8.6634    2.4399    6.0762 C.ar    1  UNL1       -0.0219
     28 C           7.3259    4.2546    2.9847 C.3     1  UNL1       -0.0197
     29 C           7.4052    5.7660    3.2398 C.3     1  UNL1       -0.0586
     30 C           7.6329    3.9943    1.5072 C.3     1  UNL1       -0.0586
     31 C           8.2321    1.9609    7.4439 C.3     1  UNL1       -0.0197
     32 C           9.1237    2.5389    8.5463 C.3     1  UNL1       -0.0586
     33 C           8.2589    0.4304    7.5189 C.3     1  UNL1       -0.0586
     34 H           4.2798    8.3670    4.5846 H       1  UNL1        0.0235
     35 H           3.5112    8.8965    6.0757 H       1  UNL1        0.0235
     36 H           6.5427    8.5563    5.8089 H       1  UNL1        0.0235
     37 H           6.7625    7.7259    7.3502 H       1  UNL1        0.0235
     38 H           6.8937    6.3165    2.4517 H       1  UNL1        0.0235
     39 H           8.4447    6.0892    3.2473 H       1  UNL1        0.0235
     40 H           6.8064    4.3418    0.8882 H       1  UNL1        0.0235
     41 H           7.7903    2.9373    1.3099 H       1  UNL1        0.0235
     42 H           8.7110    2.2989    9.5237 H       1  UNL1        0.0235
     43 H           9.2029    3.6184    8.4607 H       1  UNL1        0.0235
     44 H           7.9068    0.1025    8.4944 H       1  UNL1        0.0235
     45 H           9.2690    0.0547    7.3793 H       1  UNL1        0.0235
     46 H           2.4809    5.1868   10.6572 H       1  UNL1        0.0621
     47 H           2.6026    7.6044   10.3335 H       1  UNL1        0.0618
     48 H           3.6957    8.5185    8.3379 H       1  UNL1        0.0621
     49 H           3.3447    2.7239    8.1036 H       1  UNL1        0.0344
     50 H           5.6004    2.7843    9.0559 H       1  UNL1        0.0235
     51 H           4.6429    1.5865    9.9239 H       1  UNL1        0.0235
     52 H           4.9607    3.1576   10.6624 H       1  UNL1        0.0235
     53 H           2.1280    1.7150    9.8932 H       1  UNL1        0.0235
     54 H           1.3637    3.2923    9.6646 H       1  UNL1        0.0235
     55 H           2.4675    3.0208   11.0145 H       1  UNL1        0.0235
     56 H           5.3119    6.4569    5.7009 H       1  UNL1        0.0344
     57 H           2.9771    7.4112    5.3061 H       1  UNL1        0.0235
     58 H           5.6444    9.0778    7.2312 H       1  UNL1        0.0235
     59 H           6.1498    4.9311    9.2261 H       1  UNL1        0.0622
     60 H           7.8023    6.2019   10.4718 H       1  UNL1        0.0618
     61 H           9.8028    7.1095    9.3370 H       1  UNL1        0.0618
     62 H          10.1100    6.7065    6.9171 H       1  UNL1        0.0618
     63 H           8.4616    5.4413    5.6608 H       1  UNL1        0.0622
     64 H           9.8960    3.4799    2.5659 H       1  UNL1        0.0621
     65 H          11.3985    2.2809    4.0794 H       1  UNL1        0.0618
     66 H          10.6100    1.5915    6.2954 H       1  UNL1        0.0621
     67 H           6.3025    3.9116    3.2000 H       1  UNL1        0.0344
     68 H           6.9498    6.0293    4.1903 H       1  UNL1        0.0235
     69 H           8.5219    4.5372    1.1953 H       1  UNL1        0.0235
     70 H           7.2019    2.2888    7.6190 H       1  UNL1        0.0344
     71 H          10.1246    2.1194    8.4890 H       1  UNL1        0.0235
     72 H           7.6211   -0.0097    6.7563 H       1  UNL1        0.0235
@<TRIPOS>BOND
     1    40    30    1
     2    69    30    1
     3    41    30    1
     4    30    28    1
     5    38    29    1
     6    64    24    1
     7    28    67    1
     8    28    29    1
     9    28    23    1
    10    29    39    1
    11    29    68    1
    12    24    23   ar
    13    24    25   ar
    14    23    22   ar
    15    65    25    1
    16    25    26   ar
    17    34    13    1
    18    22     2    1
    19    22    27   ar
    20    57    13    1
    21    13    35    1
    22    13    12    1
    23     2    15    1
    24    26    27   ar
    25    26    66    1
    26    63    21    1
    27    56    12    1
    28    36    14    1
    29    27    31    1
    30    12    14    1
    31    12     8    1
    32    15     1    1
    33    15    16    1
    34    14    58    1
    35    14    37    1
    36    21    16   ar
    37    21    20   ar
    38    72    33    1
    39     1     3    1
    40    62    20    1
    41    16    17   ar
    42    45    33    1
    43    20    19   ar
    44    31    33    1
    45    31    70    1
    46    31    32    1
    47    33    44    1
    48     8     3   ar
    49     8     7   ar
    50     3     4   ar
    51    49     9    1
    52    48     7    1
    53    43    32    1
    54     7     6   ar
    55    71    32    1
    56    32    42    1
    57    17    59    1
    58    17    18   ar
    59    19    61    1
    60    19    18   ar
    61     4     9    1
    62     4     5   ar
    63    50    10    1
    64     9    10    1
    65     9    11    1
    66    18    60    1
    67     6     5   ar
    68     6    47    1
    69    54    11    1
    70    10    51    1
    71    10    52    1
    72     5    46    1
    73    53    11    1
    74    11    55    1
