@<TRIPOS>MOLECULE
3,4
 38 38 0 0 0
SMALL
GASTEIGER

@<TRIPOS>ATOM
      1 SI          3.9782    8.7776   -2.0109 Si      1  UNL1        0.0000
      2 SI          6.7866   10.9784    1.3566 Si      1  UNL1        0.0000
      3 N           3.2912    9.6373   -0.6867 N.pl3   1  UNL1        0.0000
      4 N           5.1794   10.7009    0.8025 N.pl3   1  UNL1        0.0000
      5 C           3.3620   11.0362   -0.6844 C.ar    1  UNL1        0.0000
      6 C           2.5380   11.8596   -1.4350 C.ar    1  UNL1        0.0000
      7 C           2.6950   13.2417   -1.3946 C.ar    1  UNL1        0.0000
      8 C           3.6985   13.8013   -0.6289 C.ar    1  UNL1        0.0000
      9 C           4.5517   12.9945    0.1161 C.ar    1  UNL1        0.0000
     10 C           4.3986   11.6115    0.1165 C.ar    1  UNL1        0.0000
     11 C           3.5201    9.5402   -3.7063 C.3     1  UNL1        0.0000
     12 C           3.3070    6.9893   -1.9428 C.3     1  UNL1        0.0000
     13 C           5.8960    8.7823   -1.8716 C.3     1  UNL1        0.0000
     14 C           6.9408   12.0609    2.9397 C.3     1  UNL1        0.0000
     15 C           7.9028   11.7638    0.0137 C.3     1  UNL1        0.0000
     16 C           7.4054    9.2169    1.7755 C.3     1  UNL1        0.0000
     17 H           1.7738   11.4118   -2.0537 H       1  UNL1        0.0000
     18 H           2.0375   13.8715   -1.9755 H       1  UNL1        0.0000
     19 H           3.8308   14.8736   -0.6070 H       1  UNL1        0.0000
     20 H           5.3458   13.4363    0.7001 H       1  UNL1        0.0000
     21 H           3.7824   10.5927   -3.7487 H       1  UNL1        0.0000
     22 H           2.4582    9.4568   -3.9146 H       1  UNL1        0.0000
     23 H           4.0491    9.0351   -4.5070 H       1  UNL1        0.0000
     24 H           3.5240    6.5298   -0.9833 H       1  UNL1        0.0000
     25 H           3.7804    6.3876   -2.7105 H       1  UNL1        0.0000
     26 H           2.2357    6.9425   -2.1075 H       1  UNL1        0.0000
     27 H           6.3159    9.7099   -2.2514 H       1  UNL1        0.0000
     28 H           6.3581    7.9657   -2.4177 H       1  UNL1        0.0000
     29 H           6.1707    8.6993   -0.8185 H       1  UNL1        0.0000
     30 H           6.6148   13.0847    2.7803 H       1  UNL1        0.0000
     31 H           7.9728   12.0982    3.2748 H       1  UNL1        0.0000
     32 H           6.3486   11.6469    3.7506 H       1  UNL1        0.0000
     33 H           8.0100   11.1068   -0.8436 H       1  UNL1        0.0000
     34 H           8.8956   11.9559    0.4070 H       1  UNL1        0.0000
     35 H           7.5037   12.7058   -0.3479 H       1  UNL1        0.0000
     36 H           8.0814    8.8349    1.0175 H       1  UNL1        0.0000
     37 H           6.5473    8.5409    1.8416 H       1  UNL1        0.0000
     38 H           7.9388    9.1868    2.7192 H       1  UNL1        0.0000
@<TRIPOS>BOND
     1    23    11    1
     2    22    11    1
     3    21    11    1
     4    11     1    1
     5    25    12    1
     6    28    13    1
     7    27    13    1
     8    26    12    1
     9    17     6    1
    10     1    12    1
    11     1    13    1
    12     1     3    1
    13    18     7    1
    14    12    24    1
    15    13    29    1
    16     6     7   ar
    17     6     5   ar
    18     7     8   ar
    19    33    15    1
    20     3     5    1
    21     5    10   ar
    22     8    19    1
    23     8     9   ar
    24    35    15    1
    25    15    34    1
    26    15     2    1
    27     9    10   ar
    28     9    20    1
    29    10     4    1
    30     4     2    1
    31    36    16    1
    32     2    16    1
    33     2    14    1
    34    16    37    1
    35    16    38    1
    36    30    14    1
    37    14    31    1
    38    14    32    1
