@<TRIPOS>MOLECULE
1,2
 38 37 0 0 0
SMALL
GASTEIGER

@<TRIPOS>ATOM
      1 N           1.7841    9.3294    1.6262 N.pl3   1  UNL1       -0.2479
      2 N           3.8298    9.9932    3.1391 N.pl3   1  UNL1       -0.2479
      3 C           1.8621   10.6726    1.9655 C.2     1  UNL1        0.0409
      4 C           0.8717   11.7343    1.5372 C.3     1  UNL1       -0.0235
      5 C           2.9278   11.0211    2.7793 C.2     1  UNL1        0.0409
      6 C           3.1442   12.4525    3.2239 C.3     1  UNL1       -0.0235
      7 C           0.5760    8.6204    1.2113 C.3     1  UNL1        0.0450
      8 C          -0.5982    8.8647    2.1724 C.3     1  UNL1       -0.0424
      9 C           0.9658    7.1324    1.2772 C.3     1  UNL1       -0.0424
     10 C           0.1701    8.9390   -0.2434 C.3     1  UNL1       -0.0424
     11 C           3.8752    9.4845    4.5105 C.3     1  UNL1        0.0450
     12 C           2.5902    8.6629    4.7399 C.3     1  UNL1       -0.0424
     13 C           3.9820   10.5547    5.6069 C.3     1  UNL1       -0.0424
     14 C           5.0927    8.5559    4.5950 C.3     1  UNL1       -0.0424
     15 H           0.2198   11.3828    0.7462 H       1  UNL1        0.0291
     16 H           1.3991   12.6125    1.1641 H       1  UNL1        0.0291
     17 H           0.2615   12.0495    2.3862 H       1  UNL1        0.0291
     18 H           4.0749   12.5381    3.7754 H       1  UNL1        0.0291
     19 H           2.3241   12.8035    3.8538 H       1  UNL1        0.0291
     20 H           3.2068   13.1189    2.3599 H       1  UNL1        0.0291
     21 H          -0.9541    9.8892    2.1214 H       1  UNL1        0.0251
     22 H          -0.2902    8.6569    3.1950 H       1  UNL1        0.0251
     23 H          -1.4221    8.2029    1.9162 H       1  UNL1        0.0251
     24 H           1.8946    6.9882    0.7179 H       1  UNL1        0.0251
     25 H           0.1845    6.5044    0.8560 H       1  UNL1        0.0251
     26 H           1.1280    6.8316    2.3103 H       1  UNL1        0.0251
     27 H           1.0739    9.0596   -0.8416 H       1  UNL1        0.0251
     28 H          -0.4307    9.8421   -0.3165 H       1  UNL1        0.0251
     29 H          -0.4167    8.1211   -0.6540 H       1  UNL1        0.0251
     30 H           1.7213    9.3196    4.7228 H       1  UNL1        0.0251
     31 H           2.6197    8.1448    5.6959 H       1  UNL1        0.0251
     32 H           2.4990    7.9363    3.9281 H       1  UNL1        0.0251
     33 H           4.8722   11.1641    5.4717 H       1  UNL1        0.0251
     34 H           4.0519   10.0661    6.5764 H       1  UNL1        0.0251
     35 H           3.1072   11.1987    5.6122 H       1  UNL1        0.0251
     36 H           6.0103    9.1318    4.5025 H       1  UNL1        0.0251
     37 H           5.0506    7.8335    3.7784 H       1  UNL1        0.0251
     38 H           5.1051    8.0246    5.5439 H       1  UNL1        0.0251
@<TRIPOS>BOND
     1    27    10    1
     2    29    10    1
     3    28    10    1
     4    10     7    1
     5    24     9    1
     6    15     4    1
     7    25     9    1
     8    16     4    1
     9     7     9    1
    10     7     1    1
    11     7     8    1
    12     9    26    1
    13     4     3    1
    14     4    17    1
    15     1     3    1
    16    23     8    1
    17     3     5    2
    18    21     8    1
    19     8    22    1
    20    20     6    1
    21     5     2    1
    22     5     6    1
    23     2    11    1
    24     6    18    1
    25     6    19    1
    26    37    14    1
    27    32    12    1
    28    36    14    1
    29    11    14    1
    30    11    12    1
    31    11    13    1
    32    14    38    1
    33    30    12    1
    34    12    31    1
    35    33    13    1
    36    13    35    1
    37    13    34    1
