@<TRIPOS>MOLECULE
1,4
 90 91 0 0 0
SMALL
GASTEIGER

@<TRIPOS>ATOM
      1 N           4.0315   -0.5579    2.0829 N.pl3   1  UNL1       -0.2363
      2 C           4.8157   -1.2156    2.9114 C.3     1  UNL1        0.1052
      3 C           2.8249   -0.9736    1.5081 C.ar    1  UNL1        0.0557
      4 N           5.4463    1.5741    2.6266 N.pl3   1  UNL1       -0.2184
      5 C           1.6427   -0.9797    2.2861 C.ar    1  UNL1       -0.0219
      6 C           2.7578   -1.3224    0.1427 C.ar    1  UNL1       -0.0219
      7 C           7.3595    1.2977    4.2783 C.3     1  UNL1        0.0020
      8 C           5.8582   -0.5378    3.5491 C.2     1  UNL1       -0.0367
      9 H           6.4761   -1.1152    4.2085 H       1  UNL1        0.0611
     10 C           5.6956    2.8789    2.1818 C.ar    1  UNL1        0.0602
     11 C           1.5409   -1.7202   -0.3929 C.ar    1  UNL1       -0.0565
     12 H           1.4856   -2.0055   -1.4324 H       1  UNL1        0.0621
     13 C           6.1809    0.8156    3.4116 C.2     1  UNL1        0.0348
     14 C           4.7468   -2.7272    3.2020 C.3     1  UNL1       -0.0086
     15 C           4.3288    4.4999    5.0910 C.3     1  UNL1       -0.0586
     16 H           5.2637    4.1142    5.4918 H       1  UNL1        0.0235
     17 H           3.5527    4.3566    5.8401 H       1  UNL1        0.0235
     18 H           4.4472    5.5675    4.9225 H       1  UNL1        0.0235
     19 C           6.6217    3.0968    1.1351 C.ar    1  UNL1       -0.0216
     20 C           3.9823   -1.2687   -0.7420 C.3     1  UNL1       -0.0197
     21 H           4.8195   -0.8905   -0.1414 H       1  UNL1        0.0344
     22 C           0.4493   -1.3680    1.7050 C.ar    1  UNL1       -0.0565
     23 H          -0.4568   -1.3711    2.2903 H       1  UNL1        0.0621
     24 C           3.5674   -3.4776    2.5783 C.3     1  UNL1       -0.0577
     25 H           3.6758   -4.5394    2.7977 H       1  UNL1        0.0236
     26 H           3.5350   -3.3628    1.5002 H       1  UNL1        0.0236
     27 H           2.6185   -3.1480    2.9899 H       1  UNL1        0.0236
     28 C           0.3967   -1.7576    0.3780 C.ar    1  UNL1       -0.0611
     29 H          -0.5401   -2.0739   -0.0557 H       1  UNL1        0.0618
     30 C           4.9784    3.9725    2.7112 C.ar    1  UNL1       -0.0216
     31 C           6.0337   -3.3542    2.6395 C.3     1  UNL1       -0.0577
     32 H           6.0377   -4.4271    2.8227 H       1  UNL1        0.0236
     33 H           6.9225   -2.9283    3.0956 H       1  UNL1        0.0236
     34 H           6.0931   -3.1878    1.5659 H       1  UNL1        0.0236
     35 C           1.6919   -0.4710    3.7074 C.3     1  UNL1       -0.0197
     36 H           2.7078   -0.6079    4.0907 H       1  UNL1        0.0344
     37 C           7.3092    1.9187    0.4862 C.3     1  UNL1       -0.0197
     38 H           7.2892    1.0759    1.1843 H       1  UNL1        0.0344
     39 C           4.3603   -2.6517   -1.2790 C.3     1  UNL1       -0.0586
     40 H           4.5884   -3.3398   -0.4678 H       1  UNL1        0.0235
     41 H           5.2383   -2.5747   -1.9170 H       1  UNL1        0.0235
     42 H           3.5487   -3.0758   -1.8654 H       1  UNL1        0.0235
     43 C           6.8183    4.3805    0.6591 C.ar    1  UNL1       -0.0565
     44 H           7.5133    4.5510   -0.1484 H       1  UNL1        0.0621
     45 C           4.6668   -2.9680    4.7182 C.3     1  UNL1       -0.0577
     46 H           4.5846   -4.0355    4.9141 H       1  UNL1        0.0236
     47 H           3.7896   -2.4777    5.1349 H       1  UNL1        0.0236
     48 H           5.5434   -2.6018    5.2434 H       1  UNL1        0.0236
     49 C           3.9420    3.7823    3.7948 C.3     1  UNL1       -0.0197
     50 H           3.8639    2.7084    4.0045 H       1  UNL1        0.0344
     51 C           3.7406   -0.2990   -1.9023 C.3     1  UNL1       -0.0586
     52 H           3.4214    0.6704   -1.5213 H       1  UNL1        0.0235
     53 H           2.9687   -0.6779   -2.5670 H       1  UNL1        0.0235
     54 H           4.6515   -0.1660   -2.4807 H       1  UNL1        0.0235
     55 C           0.7274   -1.1788    4.6580 C.3     1  UNL1       -0.0586
     56 H           0.8402   -2.2593    4.5941 H       1  UNL1        0.0235
     57 H          -0.3061   -0.9257    4.4357 H       1  UNL1        0.0235
     58 H           0.9313   -0.8732    5.6824 H       1  UNL1        0.0235
     59 C           7.7827    2.7551    4.0789 C.3     1  UNL1       -0.0548
     60 H           8.5743    2.9882    4.7906 H       1  UNL1        0.0238
     61 H           6.9643    3.4448    4.2536 H       1  UNL1        0.0238
     62 H           8.1710    2.9270    3.0800 H       1  UNL1        0.0238
     63 C           2.5817    4.2838    3.3016 C.3     1  UNL1       -0.0586
     64 H           2.3489    3.8412    2.3347 H       1  UNL1        0.0235
     65 H           2.5893    5.3642    3.1866 H       1  UNL1        0.0235
     66 H           1.8005    4.0235    4.0116 H       1  UNL1        0.0235
     67 C           1.4084    1.0328    3.6614 C.3     1  UNL1       -0.0586
     68 H           2.1073    1.5148    2.9673 H       1  UNL1        0.0235
     69 H           1.5210    1.4755    4.6482 H       1  UNL1        0.0235
     70 H           0.3971    1.2177    3.3066 H       1  UNL1        0.0235
     71 C           6.9365    1.1422    5.7486 C.3     1  UNL1       -0.0548
     72 H           6.6918    0.1123    5.9911 H       1  UNL1        0.0238
     73 H           6.0604    1.7543    5.9529 H       1  UNL1        0.0238
     74 H           7.7426    1.4644    6.4052 H       1  UNL1        0.0238
     75 C           5.2238    5.2443    2.2155 C.ar    1  UNL1       -0.0565
     76 H           4.6885    6.0865    2.6267 H       1  UNL1        0.0621
     77 C           6.1375    5.4548    1.2026 C.ar    1  UNL1       -0.0611
     78 H           6.3120    6.4521    0.8270 H       1  UNL1        0.0618
     79 C           8.6017    0.4371    3.9964 C.3     1  UNL1       -0.0548
     80 H           8.4522   -0.6055    4.2589 H       1  UNL1        0.0238
     81 H           9.4430    0.8084    4.5786 H       1  UNL1        0.0238
     82 H           8.8677    0.4893    2.9429 H       1  UNL1        0.0238
     83 C           6.4832    1.5292   -0.7416 C.3     1  UNL1       -0.0586
     84 H           5.4445    1.3653   -0.4379 H       1  UNL1        0.0235
     85 H           6.8755    0.6240   -1.1994 H       1  UNL1        0.0235
     86 H           6.4937    2.3300   -1.4770 H       1  UNL1        0.0235
     87 C           8.7655    2.1837    0.1049 C.3     1  UNL1       -0.0586
     88 H           9.3260    2.5746    0.9518 H       1  UNL1        0.0235
     89 H           8.8381    2.8955   -0.7132 H       1  UNL1        0.0235
     90 H           9.2352    1.2565   -0.2181 H       1  UNL1        0.0235
@<TRIPOS>BOND
     1    53    51    1
     2    54    51    1
     3    41    39    1
     4    51    52    1
     5    51    20    1
     6    42    39    1
     7    86    83    1
     8    12    11    1
     9    39    20    1
    10    39    40    1
    11    85    83    1
    12    20    21    1
    13    20     6    1
    14    83    84    1
    15    83    37    1
    16    89    87    1
    17    11     6   ar
    18    11    28   ar
    19    90    87    1
    20    44    43    1
    21    29    28    1
    22    87    37    1
    23    87    88    1
    24     6     3   ar
    25    28    22   ar
    26    37    19    1
    27    37    38    1
    28    43    19   ar
    29    43    77   ar
    30    78    77    1
    31    19    10   ar
    32    77    75   ar
    33    26    24    1
    34     3     1    1
    35     3     5   ar
    36    34    31    1
    37    22     5   ar
    38    22    23    1
    39     1     2    1
    40    10     4    1
    41    10    30   ar
    42    75    76    1
    43    75    30   ar
    44     5    35    1
    45    64    63    1
    46    24    25    1
    47    24    27    1
    48    24    14    1
    49     4    13    1
    50    31    32    1
    51    31    33    1
    52    31    14    1
    53    30    49    1
    54     2    14    1
    55     2     8    1
    56    82    79    1
    57    68    67    1
    58    62    59    1
    59    65    63    1
    60    14    45    1
    61    63    49    1
    62    63    66    1
    63    70    67    1
    64    13     8    2
    65    13     7    1
    66     8     9    1
    67    67    35    1
    68    67    69    1
    69    35    36    1
    70    35    55    1
    71    49    50    1
    72    49    15    1
    73    79    80    1
    74    79     7    1
    75    79    81    1
    76    59    61    1
    77    59     7    1
    78    59    60    1
    79     7    71    1
    80    57    55    1
    81    56    55    1
    82    55    58    1
    83    45    46    1
    84    45    47    1
    85    45    48    1
    86    18    15    1
    87    15    16    1
    88    15    17    1
    89    71    73    1
    90    71    72    1
    91    71    74    1
