@<TRIPOS>MOLECULE
1,2
 90 91 0 0 0
SMALL
GASTEIGER

@<TRIPOS>ATOM
      1 N          10.3023   -6.2125    4.0233 N.pl3   1  UNL1       -0.2363
      2 N          11.2411   -6.2332    6.4795 N.pl3   1  UNL1       -0.2184
      3 C          10.1580   -3.9506    2.8741 C.3     1  UNL1       -0.0086
      4 C          10.0826   -7.0651    2.9381 C.ar    1  UNL1        0.0557
      5 C          11.2589   -7.0233    7.6340 C.ar    1  UNL1        0.0602
      6 C          10.5156   -4.9130    4.0247 C.3     1  UNL1        0.1052
      7 C          11.1707   -7.4204    2.1050 C.ar    1  UNL1       -0.0219
      8 C          12.3735   -7.8303    7.9388 C.ar    1  UNL1       -0.0216
      9 C          11.0104   -4.2983    5.1773 C.2     1  UNL1       -0.0367
     10 H          11.1402   -3.2350    5.1374 H       1  UNL1        0.0611
     11 C          10.9782   -8.3544    1.1027 C.ar    1  UNL1       -0.0565
     12 H          11.8039   -8.6432    0.4706 H       1  UNL1        0.0621
     13 C          12.3244   -8.6603    9.0484 C.ar    1  UNL1       -0.0565
     14 H          13.1740   -9.2825    9.2864 H       1  UNL1        0.0621
     15 C          11.3412   -4.9252    6.3825 C.2     1  UNL1        0.0348
     16 C           9.7355   -8.9256    0.8899 C.ar    1  UNL1       -0.0611
     17 H           9.6037   -9.6540    0.1035 H       1  UNL1        0.0618
     18 C          11.2050   -8.7078    9.8550 C.ar    1  UNL1       -0.0611
     19 H          11.1815   -9.3642   10.7121 H       1  UNL1        0.0618
     20 C          11.8974   -3.9895    7.4739 C.3     1  UNL1        0.0020
     21 C           8.6656   -8.5565    1.6817 C.ar    1  UNL1       -0.0565
     22 H           7.6973   -8.9961    1.4966 H       1  UNL1        0.0621
     23 C          10.1095   -7.9171    9.5574 C.ar    1  UNL1       -0.0565
     24 H           9.2363   -7.9707   10.1886 H       1  UNL1        0.0621
     25 C           9.8054   -4.6112    1.5392 C.3     1  UNL1       -0.0577
     26 H           9.4913   -3.8376    0.8390 H       1  UNL1        0.0236
     27 H           8.9938   -5.3222    1.6358 H       1  UNL1        0.0236
     28 H          10.6615   -5.1225    1.1100 H       1  UNL1        0.0236
     29 C           8.8109   -7.6330    2.7056 C.ar    1  UNL1       -0.0219
     30 C          10.1170   -7.0666    8.4664 C.ar    1  UNL1       -0.0216
     31 C          11.3248   -2.9899    2.5877 C.3     1  UNL1       -0.0577
     32 H          12.2432   -3.5439    2.4062 H       1  UNL1        0.0236
     33 H          11.5004   -2.2935    3.4016 H       1  UNL1        0.0236
     34 H          11.1012   -2.4037    1.6985 H       1  UNL1        0.0236
     35 C          12.5298   -6.8094    2.3611 C.3     1  UNL1       -0.0197
     36 H          12.3781   -5.8274    2.8183 H       1  UNL1        0.0344
     37 C          13.6094   -7.8083    7.0696 C.3     1  UNL1       -0.0197
     38 H          13.4432   -7.0778    6.2700 H       1  UNL1        0.0344
     39 C           8.9323   -3.1482    3.3407 C.3     1  UNL1       -0.0577
     40 H           9.1402   -2.6084    4.2603 H       1  UNL1        0.0236
     41 H           8.0938   -3.8159    3.5242 H       1  UNL1        0.0236
     42 H           8.6420   -2.4288    2.5772 H       1  UNL1        0.0236
     43 C          13.3708   -6.6196    1.0989 C.3     1  UNL1       -0.0586
     44 H          13.7112   -7.5727    0.7017 H       1  UNL1        0.0235
     45 H          14.2511   -6.0237    1.3319 H       1  UNL1        0.0235
     46 H          12.8037   -6.1055    0.3256 H       1  UNL1        0.0235
     47 C          13.8159   -9.1862    6.4368 C.3     1  UNL1       -0.0586
     48 H          14.0737   -9.9214    7.1953 H       1  UNL1        0.0235
     49 H          14.6177   -9.1542    5.7026 H       1  UNL1        0.0235
     50 H          12.8983   -9.5088    5.9466 H       1  UNL1        0.0235
     51 C          10.9393   -2.8091    7.7021 C.3     1  UNL1       -0.0548
     52 H          11.3053   -2.1972    8.5244 H       1  UNL1        0.0238
     53 H           9.9471   -3.1703    7.9627 H       1  UNL1        0.0238
     54 H          10.8520   -2.1692    6.8297 H       1  UNL1        0.0238
     55 C          13.2746   -7.6747    3.3785 C.3     1  UNL1       -0.0586
     56 H          12.6282   -7.8483    4.2479 H       1  UNL1        0.0235
     57 H          14.1866   -7.1814    3.7068 H       1  UNL1        0.0235
     58 H          13.5348   -8.6348    2.9417 H       1  UNL1        0.0235
     59 C          14.8598   -7.3938    7.8494 C.3     1  UNL1       -0.0586
     60 H          14.7458   -6.3996    8.2758 H       1  UNL1        0.0235
     61 H          15.7227   -7.3831    7.1862 H       1  UNL1        0.0235
     62 H          15.0625   -8.0890    8.6603 H       1  UNL1        0.0235
     63 C          13.2539   -3.4721    6.9669 C.3     1  UNL1       -0.0548
     64 H          13.9436   -4.3025    6.8318 H       1  UNL1        0.0238
     65 H          13.6839   -2.7809    7.6895 H       1  UNL1        0.0238
     66 H          13.1556   -2.9562    6.0162 H       1  UNL1        0.0238
     67 C           7.6085   -7.2343    3.5310 C.3     1  UNL1       -0.0197
     68 H           7.9575   -6.5707    4.3300 H       1  UNL1        0.0344
     69 C           8.8993   -6.2463    8.1114 C.3     1  UNL1       -0.0197
     70 H           9.2199   -5.4013    7.4948 H       1  UNL1        0.0344
     71 C          12.1346   -4.6282    8.8442 C.3     1  UNL1       -0.0548
     72 H          12.8091   -5.4747    8.7870 H       1  UNL1        0.0238
     73 H          11.2053   -4.9574    9.2980 H       1  UNL1        0.0238
     74 H          12.5851   -3.8850    9.5015 H       1  UNL1        0.0238
     75 C           6.9498   -8.4599    4.1677 C.3     1  UNL1       -0.0586
     76 H           6.4831   -9.0858    3.4115 H       1  UNL1        0.0235
     77 H           6.1816   -8.1485    4.8715 H       1  UNL1        0.0235
     78 H           7.6889   -9.0532    4.6990 H       1  UNL1        0.0235
     79 C           7.9764   -7.1177    7.2583 C.3     1  UNL1       -0.0586
     80 H           8.5306   -7.4896    6.3907 H       1  UNL1        0.0235
     81 H           7.1167   -6.5465    6.9163 H       1  UNL1        0.0235
     82 H           7.6269   -7.9747    7.8285 H       1  UNL1        0.0235
     83 C           6.5732   -6.4840    2.6860 C.3     1  UNL1       -0.0586
     84 H           6.2344   -7.1006    1.8565 H       1  UNL1        0.0235
     85 H           6.9804   -5.5621    2.2781 H       1  UNL1        0.0235
     86 H           5.7102   -6.2320    3.2991 H       1  UNL1        0.0235
     87 C           8.1546   -5.6921    9.3261 C.3     1  UNL1       -0.0586
     88 H           7.6530   -6.4828    9.8781 H       1  UNL1        0.0235
     89 H           7.3967   -4.9829    8.9991 H       1  UNL1        0.0235
     90 H           8.8360   -5.1784   10.0015 H       1  UNL1        0.0235
@<TRIPOS>BOND
     1    17    16    1
     2    46    43    1
     3    12    11    1
     4    44    43    1
     5    26    25    1
     6    16    11   ar
     7    16    21   ar
     8    43    45    1
     9    43    35    1
    10    11     7   ar
    11    28    25    1
    12    22    21    1
    13    25    27    1
    14    25     3    1
    15    21    29   ar
    16    34    31    1
    17    84    83    1
    18     7    35    1
    19     7     4   ar
    20    85    83    1
    21    35    36    1
    22    35    55    1
    23    32    31    1
    24    42    39    1
    25    31     3    1
    26    31    33    1
    27    83    86    1
    28    83    67    1
    29    29     4   ar
    30    29    67    1
    31     3    39    1
    32     3     6    1
    33     4     1    1
    34    58    55    1
    35    39    41    1
    36    39    40    1
    37    55    57    1
    38    55    56    1
    39    76    75    1
    40    67    75    1
    41    67    68    1
    42     1     6    1
    43     6     9    1
    44    75    78    1
    45    75    77    1
    46    10     9    1
    47     9    15    2
    48    49    47    1
    49    50    47    1
    50    66    63    1
    51    38    37    1
    52    15     2    1
    53    15    20    1
    54    80    79    1
    55    47    37    1
    56    47    48    1
    57     2     5    1
    58    54    51    1
    59    64    63    1
    60    81    79    1
    61    63    20    1
    62    63    65    1
    63    37    59    1
    64    37     8    1
    65    61    59    1
    66    79    82    1
    67    79    69    1
    68    20    51    1
    69    20    71    1
    70    70    69    1
    71     5     8   ar
    72     5    30   ar
    73    51    53    1
    74    51    52    1
    75    59    60    1
    76    59    62    1
    77     8    13   ar
    78    69    30    1
    79    69    87    1
    80    30    23   ar
    81    72    71    1
    82    71    73    1
    83    71    74    1
    84    89    87    1
    85    13    14    1
    86    13    18   ar
    87    87    88    1
    88    87    90    1
    89    23    18   ar
    90    23    24    1
    91    18    19    1
