@<TRIPOS>MOLECULE
1,2
 72 73 0 0 0
SMALL
GASTEIGER

@<TRIPOS>ATOM
      1 N           2.1863    2.6448   13.3229 N.pl3   1  UNL1       -0.2371
      2 N           2.2833    2.0399   16.3236 N.pl3   1  UNL1       -0.2192
      3 C           1.6717    4.9969   12.8926 C.3     1  UNL1       -0.0359
      4 H           2.3190    4.9511   12.0181 H       1  UNL1        0.0255
      5 H           1.8044    5.9552   13.3879 H       1  UNL1        0.0255
      6 H           0.6431    4.9316   12.5390 H       1  UNL1        0.0255
      7 C           1.9694    3.8469   13.8318 C.3     1  UNL1        0.0968
      8 C           1.9447    4.1504   15.1966 C.2     1  UNL1       -0.0383
      9 H           1.7499    5.1912   15.4200 H       1  UNL1        0.0610
     10 C           1.9768    3.3231   16.3299 C.2     1  UNL1        0.0264
     11 C           1.5808    4.0268   17.6127 C.3     1  UNL1       -0.0248
     12 H           0.5241    4.2889   17.5688 H       1  UNL1        0.0290
     13 H           2.1427    4.9530   17.7232 H       1  UNL1        0.0290
     14 H           1.7433    3.4008   18.4864 H       1  UNL1        0.0290
     15 C           1.8838    2.4551   11.9458 C.ar    1  UNL1        0.0557
     16 C           2.8874    2.4624   10.9687 C.ar    1  UNL1       -0.0219
     17 C           2.5396    2.2643    9.6392 C.ar    1  UNL1       -0.0565
     18 H           3.3091    2.2593    8.8823 H       1  UNL1        0.0621
     19 C           1.2255    2.0707    9.2674 C.ar    1  UNL1       -0.0611
     20 H           0.9700    1.9212    8.2291 H       1  UNL1        0.0618
     21 C           0.2382    2.0505   10.2347 C.ar    1  UNL1       -0.0565
     22 H          -0.7835    1.8744    9.9386 H       1  UNL1        0.0621
     23 C           0.5440    2.2475   11.5715 C.ar    1  UNL1       -0.0219
     24 C          -0.5252    2.1247   12.6337 C.3     1  UNL1       -0.0197
     25 H          -0.2445    2.7396   13.4962 H       1  UNL1        0.0344
     26 C          -1.9095    2.5799   12.1720 C.3     1  UNL1       -0.0586
     27 H          -1.8591    3.5577   11.6970 H       1  UNL1        0.0235
     28 H          -2.5769    2.6489   13.0289 H       1  UNL1        0.0235
     29 H          -2.3436    1.8732   11.4696 H       1  UNL1        0.0235
     30 C          -0.5601    0.6615   13.0858 C.3     1  UNL1       -0.0586
     31 H          -0.7567    0.0105   12.2367 H       1  UNL1        0.0235
     32 H          -1.3411    0.5136   13.8272 H       1  UNL1        0.0235
     33 H           0.4084    0.3772   13.5208 H       1  UNL1        0.0235
     34 C           4.3434    2.6223   11.3395 C.3     1  UNL1       -0.0197
     35 H           4.4001    2.8820   12.4026 H       1  UNL1        0.0344
     36 C           5.0517    1.2797   11.1399 C.3     1  UNL1       -0.0586
     37 H           4.6086    0.5373   11.8132 H       1  UNL1        0.0235
     38 H           6.1169    1.3703   11.3492 H       1  UNL1        0.0235
     39 H           4.9346    0.9347   10.1156 H       1  UNL1        0.0235
     40 C           5.0276    3.7352   10.5421 C.3     1  UNL1       -0.0586
     41 H           5.0756    3.4880    9.4851 H       1  UNL1        0.0235
     42 H           6.0461    3.8804   10.8987 H       1  UNL1        0.0235
     43 H           4.4900    4.6761   10.6476 H       1  UNL1        0.0235
     44 C           2.1302    1.3032   17.5321 C.ar    1  UNL1        0.0601
     45 C           0.8748    0.7674   17.8638 C.ar    1  UNL1       -0.0216
     46 C           0.7245    0.0906   19.0661 C.ar    1  UNL1       -0.0565
     47 H          -0.2407   -0.3138   19.3310 H       1  UNL1        0.0621
     48 C           1.7851   -0.0678   19.9352 C.ar    1  UNL1       -0.0611
     49 H           1.6479   -0.5836   20.8738 H       1  UNL1        0.0618
     50 C           3.0269    0.4266   19.5886 C.ar    1  UNL1       -0.0565
     51 H           3.8557    0.2883   20.2651 H       1  UNL1        0.0621
     52 C           3.2226    1.1051   18.3945 C.ar    1  UNL1       -0.0216
     53 C           4.5990    1.6254   18.0441 C.3     1  UNL1       -0.0197
     54 H           4.5940    1.8660   16.9729 H       1  UNL1        0.0344
     55 C           4.9203    2.8960   18.8376 C.3     1  UNL1       -0.0586
     56 H           4.8707    2.6956   19.9061 H       1  UNL1        0.0235
     57 H           4.2143    3.6904   18.6075 H       1  UNL1        0.0235
     58 H           5.9244    3.2467   18.6034 H       1  UNL1        0.0235
     59 C           5.6792    0.5687   18.2814 C.3     1  UNL1       -0.0586
     60 H           6.6330    0.9050   17.8773 H       1  UNL1        0.0235
     61 H           5.4036   -0.3619   17.7866 H       1  UNL1        0.0235
     62 H           5.8180    0.3713   19.3411 H       1  UNL1        0.0235
     63 C          -0.3049    0.8694   16.9235 C.3     1  UNL1       -0.0197
     64 H           0.0038    1.4228   16.0276 H       1  UNL1        0.0344
     65 C          -1.4739    1.6159   17.5707 C.3     1  UNL1       -0.0586
     66 H          -1.8721    1.0572   18.4141 H       1  UNL1        0.0235
     67 H          -2.2746    1.7562   16.8472 H       1  UNL1        0.0235
     68 H          -1.1581    2.5931   17.9288 H       1  UNL1        0.0235
     69 C          -0.7377   -0.5341   16.4898 C.3     1  UNL1       -0.0586
     70 H          -0.9943   -1.1451   17.3515 H       1  UNL1        0.0235
     71 H           0.0661   -1.0273   15.9461 H       1  UNL1        0.0235
     72 H          -1.6122   -0.4799   15.8451 H       1  UNL1        0.0235
@<TRIPOS>BOND
     1    20    19    1
     2    18    17    1
     3    19    17   ar
     4    19    21   ar
     5    41    40    1
     6    17    16   ar
     7    22    21    1
     8    39    36    1
     9    21    23   ar
    10    40    43    1
    11    40    42    1
    12    40    34    1
    13    16    34    1
    14    16    15   ar
    15    36    34    1
    16    36    38    1
    17    36    37    1
    18    34    35    1
    19    29    26    1
    20    23    15   ar
    21    23    24    1
    22    27    26    1
    23    15     1    1
    24     4     3    1
    25    26    24    1
    26    26    28    1
    27    31    30    1
    28     6     3    1
    29    24    30    1
    30    24    25    1
    31     3     5    1
    32     3     7    1
    33    30    33    1
    34    30    32    1
    35     1     7    1
    36     7     8    1
    37     8     9    1
    38     8    10    2
    39    72    69    1
    40    71    69    1
    41    64    63    1
    42     2    10    1
    43     2    44    1
    44    10    11    1
    45    69    63    1
    46    69    70    1
    47    67    65    1
    48    63    65    1
    49    63    45    1
    50    54    53    1
    51    44    45   ar
    52    44    52   ar
    53    12    11    1
    54    65    68    1
    55    65    66    1
    56    11    13    1
    57    11    14    1
    58    61    59    1
    59    45    46   ar
    60    60    59    1
    61    53    59    1
    62    53    52    1
    63    53    55    1
    64    59    62    1
    65    52    50   ar
    66    58    55    1
    67    57    55    1
    68    55    56    1
    69    46    47    1
    70    46    48   ar
    71    50    48   ar
    72    50    51    1
    73    48    49    1
