@<TRIPOS>MOLECULE
1,2
 72 73 0 0 0
SMALL
GASTEIGER

@<TRIPOS>ATOM
      1 N           0.8854    2.8457    6.3572 N.pl3   1  UNL1       -0.2371
      2 N           1.1181    1.6991    3.5917 N.pl3   1  UNL1       -0.2192
      3 C           0.3236    1.1037    8.0168 C.3     1  UNL1       -0.0359
      4 H           1.2243    0.7717    8.5326 H       1  UNL1        0.0255
      5 H          -0.3650    0.2631    7.9752 H       1  UNL1        0.0255
      6 H          -0.1270    1.9058    8.5961 H       1  UNL1        0.0255
      7 C           0.6967    1.5631    6.6229 C.3     1  UNL1        0.0968
      8 C           0.7899    0.5377    5.6758 C.2     1  UNL1       -0.0383
      9 H           0.6458   -0.4581    6.0724 H       1  UNL1        0.0610
     10 C           0.8728    0.5975    4.2800 C.2     1  UNL1        0.0264
     11 C           0.6117   -0.7202    3.5819 C.3     1  UNL1       -0.0248
     12 H          -0.3735   -1.0965    3.8527 H       1  UNL1        0.0290
     13 H           1.3465   -1.4550    3.9083 H       1  UNL1        0.0290
     14 H           0.6638   -0.6183    2.5010 H       1  UNL1        0.0290
     15 C           0.5322    3.7946    7.3596 C.ar    1  UNL1        0.0557
     16 C          -0.7436    4.3832    7.3036 C.ar    1  UNL1       -0.0219
     17 C          -1.1300    5.2588    8.3072 C.ar    1  UNL1       -0.0565
     18 H          -2.1166    5.6941    8.2871 H       1  UNL1        0.0621
     19 C          -0.2730    5.5812    9.3414 C.ar    1  UNL1       -0.0611
     20 H          -0.5901    6.2608   10.1182 H       1  UNL1        0.0618
     21 C           0.9963    5.0389    9.3671 C.ar    1  UNL1       -0.0565
     22 H           1.6700    5.3106   10.1653 H       1  UNL1        0.0621
     23 C           1.4152    4.1411    8.3948 C.ar    1  UNL1       -0.0219
     24 C           2.8256    3.6008    8.4510 C.3     1  UNL1       -0.0197
     25 H           2.9485    2.8520    7.6580 H       1  UNL1        0.0344
     26 C           3.1376    2.9370    9.7944 C.3     1  UNL1       -0.0586
     27 H           3.1600    3.6698   10.5970 H       1  UNL1        0.0235
     28 H           4.1113    2.4534    9.7518 H       1  UNL1        0.0235
     29 H           2.3899    2.1869   10.0413 H       1  UNL1        0.0235
     30 C           3.8068    4.7457    8.1807 C.3     1  UNL1       -0.0586
     31 H           3.7328    5.5064    8.9546 H       1  UNL1        0.0235
     32 H           3.5797    5.2080    7.2190 H       1  UNL1        0.0235
     33 H           4.8286    4.3726    8.1638 H       1  UNL1        0.0235
     34 C          -1.6925    4.0573    6.1712 C.3     1  UNL1       -0.0197
     35 H          -1.0942    3.6870    5.3254 H       1  UNL1        0.0344
     36 C          -2.6589    2.9440    6.5853 C.3     1  UNL1       -0.0586
     37 H          -3.2163    3.2355    7.4737 H       1  UNL1        0.0235
     38 H          -2.1159    2.0276    6.8027 H       1  UNL1        0.0235
     39 H          -3.3663    2.7421    5.7835 H       1  UNL1        0.0235
     40 C          -2.4679    5.2926    5.7075 C.3     1  UNL1       -0.0586
     41 H          -3.2436    5.5613    6.4207 H       1  UNL1        0.0235
     42 H          -2.9479    5.0994    4.7513 H       1  UNL1        0.0235
     43 H          -1.7976    6.1413    5.5895 H       1  UNL1        0.0235
     44 C           0.8911    1.6947    2.1867 C.ar    1  UNL1        0.0601
     45 C           1.9534    1.5492    1.2787 C.ar    1  UNL1       -0.0216
     46 C           1.6947    1.6171   -0.0827 C.ar    1  UNL1       -0.0565
     47 H           2.5065    1.5003   -0.7841 H       1  UNL1        0.0621
     48 C           0.4148    1.8247   -0.5581 C.ar    1  UNL1       -0.0611
     49 H           0.2315    1.8810   -1.6211 H       1  UNL1        0.0618
     50 C          -0.6302    1.9472    0.3357 C.ar    1  UNL1       -0.0565
     51 H          -1.6314    2.0972   -0.0393 H       1  UNL1        0.0621
     52 C          -0.4175    1.8727    1.7041 C.ar    1  UNL1       -0.0216
     53 C          -1.5997    1.9880    2.6397 C.3     1  UNL1       -0.0197
     54 H          -1.2468    1.8884    3.6721 H       1  UNL1        0.0344
     55 C          -2.6166    0.8737    2.3776 C.3     1  UNL1       -0.0586
     56 H          -3.0750    0.9889    1.3985 H       1  UNL1        0.0235
     57 H          -3.4043    0.9020    3.1279 H       1  UNL1        0.0235
     58 H          -2.1383   -0.1021    2.4165 H       1  UNL1        0.0235
     59 C          -2.2619    3.3584    2.4945 C.3     1  UNL1       -0.0586
     60 H          -1.5530    4.1465    2.7433 H       1  UNL1        0.0235
     61 H          -3.1214    3.4312    3.1576 H       1  UNL1        0.0235
     62 H          -2.6029    3.5254    1.4756 H       1  UNL1        0.0235
     63 C           3.3644    1.2857    1.7536 C.3     1  UNL1       -0.0197
     64 H           3.4032    1.4751    2.8379 H       1  UNL1        0.0344
     65 C           3.7472   -0.1774    1.5083 C.3     1  UNL1       -0.0586
     66 H           3.6823   -0.4153    0.4484 H       1  UNL1        0.0235
     67 H           3.0860   -0.8479    2.0508 H       1  UNL1        0.0235
     68 H           4.7673   -0.3573    1.8408 H       1  UNL1        0.0235
     69 C           4.3732    2.2112    1.0684 C.3     1  UNL1       -0.0586
     70 H           5.3305    2.1675    1.5836 H       1  UNL1        0.0235
     71 H           4.0187    3.2400    1.0810 H       1  UNL1        0.0235
     72 H           4.5380    1.9157    0.0350 H       1  UNL1        0.0235
@<TRIPOS>BOND
     1    49    48    1
     2    47    46    1
     3    48    46   ar
     4    48    50   ar
     5    46    45   ar
     6    51    50    1
     7    72    69    1
     8    50    52   ar
     9    66    65    1
    10    69    71    1
    11    69    70    1
    12    69    63    1
    13    45    63    1
    14    45    44   ar
    15    56    55    1
    16    62    59    1
    17    65    63    1
    18    65    68    1
    19    65    67    1
    20    52    44   ar
    21    52    53    1
    22    63    64    1
    23    44     2    1
    24    55    58    1
    25    55    53    1
    26    55    57    1
    27    59    53    1
    28    59    60    1
    29    59    61    1
    30    14    11    1
    31    53    54    1
    32    11    12    1
    33    11    13    1
    34    11    10    1
    35     2    10    1
    36    10     8    2
    37    42    40    1
    38    35    34    1
    39    43    40    1
    40     8     9    1
    41     8     7    1
    42    40    34    1
    43    40    41    1
    44    39    36    1
    45    34    36    1
    46    34    16    1
    47     1     7    1
    48     1    15    1
    49    36    38    1
    50    36    37    1
    51     7     3    1
    52    32    30    1
    53    16    15   ar
    54    16    17   ar
    55    15    23   ar
    56    25    24    1
    57     5     3    1
    58     3     4    1
    59     3     6    1
    60    33    30    1
    61    30    24    1
    62    30    31    1
    63    18    17    1
    64    17    19   ar
    65    23    24    1
    66    23    21   ar
    67    24    26    1
    68    19    21   ar
    69    19    20    1
    70    21    22    1
    71    28    26    1
    72    26    29    1
    73    26    27    1
