@<TRIPOS>MOLECULE
1,2
 72 73 0 0 0
SMALL
GASTEIGER

@<TRIPOS>ATOM
      1 N           8.8313   13.1039    9.1258 N.pl3   1  UNL1       -0.2371
      2 N           8.8456   10.1104    9.7170 N.pl3   1  UNL1       -0.2192
      3 C          10.9274   13.7185    7.9509 C.3     1  UNL1       -0.0359
      4 H          10.8371   13.7625    6.8662 H       1  UNL1        0.0255
      5 H          11.9411   13.3980    8.1836 H       1  UNL1        0.0255
      6 H          10.7702   14.7136    8.3579 H       1  UNL1        0.0255
      7 C           9.9264   12.7188    8.4933 C.3     1  UNL1        0.0968
      8 C          10.2897   11.3862    8.2668 C.2     1  UNL1       -0.0383
      9 H          11.1381   11.2665    7.6063 H       1  UNL1        0.0610
     10 C           9.8490   10.2002    8.8585 C.2     1  UNL1        0.0264
     11 C          10.6362    8.9725    8.4456 C.3     1  UNL1       -0.0248
     12 H          10.4791    8.1408    9.1266 H       1  UNL1        0.0290
     13 H          11.7002    9.1886    8.3836 H       1  UNL1        0.0290
     14 H          10.3064    8.6763    7.4494 H       1  UNL1        0.0290
     15 C           8.6977   14.4888    9.4383 C.ar    1  UNL1        0.0557
     16 C           9.0437   14.9184   10.7333 C.ar    1  UNL1       -0.0219
     17 C           8.9815   16.2681   11.0441 C.ar    1  UNL1       -0.0565
     18 H           9.2624   16.6040   12.0296 H       1  UNL1        0.0621
     19 C           8.5830   17.1979   10.1028 C.ar    1  UNL1       -0.0611
     20 H           8.5539   18.2481   10.3527 H       1  UNL1        0.0618
     21 C           8.2202   16.7719    8.8409 C.ar    1  UNL1       -0.0565
     22 H           7.9052   17.5016    8.1103 H       1  UNL1        0.0621
     23 C           8.2660   15.4286    8.4877 C.ar    1  UNL1       -0.0219
     24 C           7.8338   15.0334    7.0941 C.3     1  UNL1       -0.0197
     25 H           7.9613   13.9501    6.9800 H       1  UNL1        0.0344
     26 C           8.6632   15.7477    6.0213 C.3     1  UNL1       -0.0586
     27 H           8.4216   16.8075    5.9903 H       1  UNL1        0.0235
     28 H           8.4468   15.3248    5.0422 H       1  UNL1        0.0235
     29 H           9.7290   15.6509    6.2103 H       1  UNL1        0.0235
     30 C           6.3528   15.3657    6.8968 C.3     1  UNL1       -0.0586
     31 H           5.7427   14.7282    7.5345 H       1  UNL1        0.0235
     32 H           6.0641   15.1995    5.8621 H       1  UNL1        0.0235
     33 H           6.1509   16.4054    7.1437 H       1  UNL1        0.0235
     34 C           9.5404   13.9293   11.7640 C.3     1  UNL1       -0.0197
     35 H           9.1543   12.9332   11.4900 H       1  UNL1        0.0344
     36 C          11.0716   13.8816   11.7306 C.3     1  UNL1       -0.0586
     37 H          11.4223   13.5160   10.7690 H       1  UNL1        0.0235
     38 H          11.4486   13.2205   12.5076 H       1  UNL1        0.0235
     39 H          11.4833   14.8761   11.8943 H       1  UNL1        0.0235
     40 C           9.0495   14.2499   13.1770 C.3     1  UNL1       -0.0586
     41 H           9.5776   15.1031   13.5967 H       1  UNL1        0.0235
     42 H           9.2249   13.3978   13.8305 H       1  UNL1        0.0235
     43 H           7.9839   14.4684   13.1733 H       1  UNL1        0.0235
     44 C           8.7935    8.9420   10.5333 C.ar    1  UNL1        0.0601
     45 C           7.9607    7.8535   10.2280 C.ar    1  UNL1       -0.0216
     46 C           7.9831    6.7282   11.0408 C.ar    1  UNL1       -0.0565
     47 H           7.3540    5.8852   10.7985 H       1  UNL1        0.0621
     48 C           8.8109    6.6562   12.1424 C.ar    1  UNL1       -0.0611
     49 H           8.8290    5.7668   12.7548 H       1  UNL1        0.0618
     50 C           9.6169    7.7336   12.4533 C.ar    1  UNL1       -0.0565
     51 H          10.2636    7.6741   13.3151 H       1  UNL1        0.0621
     52 C           9.6196    8.8802   11.6732 C.ar    1  UNL1       -0.0216
     53 C          10.5189   10.0332   12.0640 C.3     1  UNL1       -0.0197
     54 H          10.2042   10.9156   11.4958 H       1  UNL1        0.0344
     55 C          11.9795    9.7324   11.7168 C.3     1  UNL1       -0.0586
     56 H          12.1035    9.6067   10.6462 H       1  UNL1        0.0235
     57 H          12.3089    8.8208   12.2114 H       1  UNL1        0.0235
     58 H          12.6177   10.5517   12.0420 H       1  UNL1        0.0235
     59 C          10.4068   10.3539   13.5574 C.3     1  UNL1       -0.0586
     60 H           9.3650   10.4151   13.8626 H       1  UNL1        0.0235
     61 H          10.8890   11.3054   13.7718 H       1  UNL1        0.0235
     62 H          10.8947    9.5932   14.1618 H       1  UNL1        0.0235
     63 C           7.0507    7.8626    9.0211 C.3     1  UNL1       -0.0197
     64 H           7.0838    8.8663    8.5755 H       1  UNL1        0.0344
     65 C           5.6058    7.5602    9.4279 C.3     1  UNL1       -0.0586
     66 H           5.4907    6.5198    9.7225 H       1  UNL1        0.0235
     67 H           4.9315    7.7477    8.5948 H       1  UNL1        0.0235
     68 H           5.3104    8.1850   10.2685 H       1  UNL1        0.0235
     69 C           7.5193    6.8499    7.9726 C.3     1  UNL1       -0.0586
     70 H           8.5422    7.0539    7.6675 H       1  UNL1        0.0235
     71 H           6.8811    6.8989    7.0927 H       1  UNL1        0.0235
     72 H           7.4806    5.8380    8.3703 H       1  UNL1        0.0235
@<TRIPOS>BOND
     1    28    26    1
     2    32    30    1
     3    27    26    1
     4    26    29    1
     5    26    24    1
     6     4     3    1
     7    30    24    1
     8    30    33    1
     9    30    31    1
    10    25    24    1
    11    71    69    1
    12    24    23    1
    13    14    11    1
    14     9     8    1
    15    70    69    1
    16     3     5    1
    17     3     6    1
    18     3     7    1
    19    69    72    1
    20    69    63    1
    21    22    21    1
    22     8     7    1
    23     8    10    2
    24    13    11    1
    25    11    10    1
    26    11    12    1
    27    23    21   ar
    28    23    15   ar
    29     7     1    1
    30    64    63    1
    31    67    65    1
    32    21    19   ar
    33    10     2    1
    34    63    65    1
    35    63    45    1
    36     1    15    1
    37    65    66    1
    38    65    68    1
    39    15    16   ar
    40     2    44    1
    41    19    20    1
    42    19    17   ar
    43    45    44   ar
    44    45    46   ar
    45    44    52   ar
    46    56    55    1
    47    16    17   ar
    48    16    34    1
    49    37    36    1
    50    47    46    1
    51    46    48   ar
    52    17    18    1
    53    35    34    1
    54    54    53    1
    55    52    53    1
    56    52    50   ar
    57    55    58    1
    58    55    53    1
    59    55    57    1
    60    36    34    1
    61    36    39    1
    62    36    38    1
    63    34    40    1
    64    53    59    1
    65    48    50   ar
    66    48    49    1
    67    50    51    1
    68    43    40    1
    69    40    41    1
    70    40    42    1
    71    59    61    1
    72    59    60    1
    73    59    62    1
