@<TRIPOS>MOLECULE
1,2
 72 73 0 0 0
SMALL
GASTEIGER

@<TRIPOS>ATOM
      1 N           6.4038   15.1427   12.6208 N.pl3   1  UNL1       -0.2371
      2 N           5.5797   16.7607   15.0409 N.pl3   1  UNL1       -0.2192
      3 C           8.8302   15.3384   12.1995 C.3     1  UNL1       -0.0359
      4 H           9.3746   14.4962   12.6264 H       1  UNL1        0.0255
      5 H           9.4873   16.2047   12.2236 H       1  UNL1        0.0255
      6 H           8.5881   15.1034   11.1661 H       1  UNL1        0.0255
      7 C           7.5827   15.5869   13.0218 C.3     1  UNL1        0.0968
      8 C           7.7940   16.3327   14.1870 C.2     1  UNL1       -0.0383
      9 H           8.8302   16.5750   14.3816 H       1  UNL1        0.0610
     10 C           6.8857   16.9656   15.0437 C.2     1  UNL1        0.0264
     11 C           7.5170   17.9753   15.9799 C.3     1  UNL1       -0.0248
     12 H           7.9918   18.7682   15.4041 H       1  UNL1        0.0290
     13 H           8.2922   17.4902   16.5715 H       1  UNL1        0.0290
     14 H           6.7821   18.4199   16.6461 H       1  UNL1        0.0290
     15 C           6.2935   14.6032   11.3076 C.ar    1  UNL1        0.0557
     16 C           5.8609   15.4500   10.2717 C.ar    1  UNL1       -0.0219
     17 C           5.8022   14.9604    8.9754 C.ar    1  UNL1       -0.0565
     18 H           5.4969   15.6115    8.1716 H       1  UNL1        0.0621
     19 C           6.1359   13.6508    8.6911 C.ar    1  UNL1       -0.0611
     20 H           6.0910   13.2860    7.6758 H       1  UNL1        0.0618
     21 C           6.5149   12.8088    9.7172 C.ar    1  UNL1       -0.0565
     22 H           6.7555   11.7804    9.4946 H       1  UNL1        0.0621
     23 C           6.6059   13.2634   11.0255 C.ar    1  UNL1       -0.0219
     24 C           6.9969   12.2911   12.1139 C.3     1  UNL1       -0.0197
     25 H           7.0809   12.8413   13.0576 H       1  UNL1        0.0344
     26 C           5.8936   11.2404   12.2714 C.3     1  UNL1       -0.0586
     27 H           4.9416   11.7284   12.4813 H       1  UNL1        0.0235
     28 H           6.1324   10.5610   13.0871 H       1  UNL1        0.0235
     29 H           5.7864   10.6551   11.3609 H       1  UNL1        0.0235
     30 C           8.3392   11.6130   11.8288 C.3     1  UNL1       -0.0586
     31 H           8.2681   10.9504   10.9699 H       1  UNL1        0.0235
     32 H           8.6448   11.0203   12.6886 H       1  UNL1        0.0235
     33 H           9.1128   12.3497   11.6249 H       1  UNL1        0.0235
     34 C           5.4775   16.8855   10.5574 C.3     1  UNL1       -0.0197
     35 H           5.2175   16.9616   11.6240 H       1  UNL1        0.0344
     36 C           4.2642   17.3227    9.7325 C.3     1  UNL1       -0.0586
     37 H           4.5385   17.5060    8.6962 H       1  UNL1        0.0235
     38 H           3.8461   18.2424   10.1336 H       1  UNL1        0.0235
     39 H           3.4914   16.5573    9.7546 H       1  UNL1        0.0235
     40 C           6.6648   17.8164   10.2961 C.3     1  UNL1       -0.0586
     41 H           7.4909   17.5781   10.9616 H       1  UNL1        0.0235
     42 H           6.3761   18.8520   10.4639 H       1  UNL1        0.0235
     43 H           7.0084   17.7151    9.2682 H       1  UNL1        0.0235
     44 C           4.7414   17.6791   15.7308 C.ar    1  UNL1        0.0601
     45 C           4.1567   17.3434   16.9649 C.ar    1  UNL1       -0.0216
     46 C           3.3117   18.2522   17.5845 C.ar    1  UNL1       -0.0565
     47 H           2.8707   18.0044   18.5372 H       1  UNL1        0.0621
     48 C           3.0260   19.4733   17.0060 C.ar    1  UNL1       -0.0611
     49 H           2.3625   20.1677   17.5003 H       1  UNL1        0.0618
     50 C           3.5977   19.7996   15.7929 C.ar    1  UNL1       -0.0565
     51 H           3.3718   20.7541   15.3420 H       1  UNL1        0.0621
     52 C           4.4615   18.9275   15.1472 C.ar    1  UNL1       -0.0216
     53 C           5.0493   19.3359   13.8153 C.3     1  UNL1       -0.0197
     54 H           5.7387   18.5561   13.4746 H       1  UNL1        0.0344
     55 C           3.9337   19.4697   12.7774 C.3     1  UNL1       -0.0586
     56 H           3.4139   18.5195   12.6607 H       1  UNL1        0.0235
     57 H           4.3477   19.7694   11.8171 H       1  UNL1        0.0235
     58 H           3.2027   20.2152   13.0816 H       1  UNL1        0.0235
     59 C           5.8332   20.6461   13.9258 C.3     1  UNL1       -0.0586
     60 H           5.1689   21.4813   14.1334 H       1  UNL1        0.0235
     61 H           6.3526   20.8504   12.9914 H       1  UNL1        0.0235
     62 H           6.5690   20.5911   14.7245 H       1  UNL1        0.0235
     63 C           4.4657   16.0261   17.6389 C.3     1  UNL1       -0.0197
     64 H           4.7949   15.3223   16.8569 H       1  UNL1        0.0344
     65 C           3.2483   15.4199   18.3401 C.3     1  UNL1       -0.0586
     66 H           3.0349   15.9341   19.2743 H       1  UNL1        0.0235
     67 H           3.4417   14.3751   18.5743 H       1  UNL1        0.0235
     68 H           2.3685   15.4724   17.7029 H       1  UNL1        0.0235
     69 C           5.6060   16.1996   18.6480 C.3     1  UNL1       -0.0586
     70 H           6.5233   16.5027   18.1510 H       1  UNL1        0.0235
     71 H           5.7892   15.2621   19.1689 H       1  UNL1        0.0235
     72 H           5.3456   16.9578   19.3846 H       1  UNL1        0.0235
@<TRIPOS>BOND
     1    20    19    1
     2    18    17    1
     3    19    17   ar
     4    19    21   ar
     5    37    36    1
     6    17    16   ar
     7    43    40    1
     8    22    21    1
     9    21    23   ar
    10    36    39    1
    11    36    38    1
    12    36    34    1
    13    16    34    1
    14    16    15   ar
    15    40    42    1
    16    40    34    1
    17    40    41    1
    18    34    35    1
    19    31    30    1
    20    23    15   ar
    21    23    24    1
    22     6     3    1
    23    15     1    1
    24    29    26    1
    25    33    30    1
    26    57    55    1
    27    30    24    1
    28    30    32    1
    29    24    26    1
    30    24    25    1
    31     3     5    1
    32     3     4    1
    33     3     7    1
    34    26    27    1
    35    26    28    1
    36     1     7    1
    37    56    55    1
    38    55    58    1
    39    55    53    1
    40    61    59    1
    41     7     8    1
    42    54    53    1
    43    53    59    1
    44    53    52    1
    45    59    60    1
    46    59    62    1
    47     8     9    1
    48     8    10    2
    49     2    10    1
    50     2    44    1
    51    10    11    1
    52    52    44   ar
    53    52    50   ar
    54    51    50    1
    55    12    11    1
    56    44    45   ar
    57    50    48   ar
    58    11    13    1
    59    11    14    1
    60    64    63    1
    61    45    46   ar
    62    45    63    1
    63    48    49    1
    64    48    46   ar
    65    46    47    1
    66    63    65    1
    67    63    69    1
    68    68    65    1
    69    70    69    1
    70    65    67    1
    71    65    66    1
    72    69    71    1
    73    69    72    1
