@<TRIPOS>MOLECULE
3,29
 55 54 0 0 0
SMALL
GASTEIGER

@<TRIPOS>ATOM
      1 SI         10.4131   10.4133   15.7949 Si      1  UNL1        0.0000
      2 P          10.8491    8.2975   13.6256 P.3     1  UNL1        0.0000
      3 N          10.0909    8.9969   14.8384 N.3     1  UNL1        0.0000
      4 C           9.3831    9.5527   11.6165 C.3     1  UNL1        0.0000
      5 H           8.7306    9.4483   10.7524 H       1  UNL1        0.0000
      6 H          10.2369   10.1642   11.3282 H       1  UNL1        0.0000
      7 H           8.8226   10.0594   12.4017 H       1  UNL1        0.0000
      8 C           9.8173    8.1779   12.1094 C.3     1  UNL1        0.0000
      9 H          10.3842    7.6370   11.3474 H       1  UNL1        0.0000
     10 H           8.9368    7.5839   12.3718 H       1  UNL1        0.0000
     11 C          11.4058    6.5869   14.0042 C.3     1  UNL1        0.0000
     12 H          10.5144    6.0250   14.2993 H       1  UNL1        0.0000
     13 H          11.8051    6.1438   13.0882 H       1  UNL1        0.0000
     14 C          12.4282    6.5579   15.1336 C.3     1  UNL1        0.0000
     15 H          12.6952    5.5290   15.3648 H       1  UNL1        0.0000
     16 H          11.9920    6.9997   16.0287 H       1  UNL1        0.0000
     17 H          13.3373    7.0954   14.8680 H       1  UNL1        0.0000
     18 C          12.3442    9.2791   13.1926 C.3     1  UNL1        0.0000
     19 H          11.9986   10.2906   12.9718 H       1  UNL1        0.0000
     20 H          12.9497    9.3397   14.0987 H       1  UNL1        0.0000
     21 C          13.1582    8.7209   12.0345 C.3     1  UNL1        0.0000
     22 H          14.0278    9.3500   11.8526 H       1  UNL1        0.0000
     23 H          12.5688    8.6898   11.1218 H       1  UNL1        0.0000
     24 H          13.5095    7.7156   12.2522 H       1  UNL1        0.0000
     25 C          12.0464   10.3178   16.8007 C.3     1  UNL1        0.0000
     26 H          12.6628   11.1955   16.6378 H       1  UNL1        0.0000
     27 H          12.6263    9.4432   16.5255 H       1  UNL1        0.0000
     28 H          11.8473   10.2388   17.8643 H       1  UNL1        0.0000
     29 N           8.9964   10.0915   16.7512 N.3     1  UNL1        0.0000
     30 P           8.2972   10.8495   17.9643 P.3     1  UNL1        0.0000
     31 C           8.1780    9.8174   19.4804 C.3     1  UNL1        0.0000
     32 C           9.5527    9.3833   19.9735 C.3     1  UNL1        0.0000
     33 H           9.4484    8.7307   20.8376 H       1  UNL1        0.0000
     34 H          10.1642   10.2370   20.2618 H       1  UNL1        0.0000
     35 H          10.0594    8.8228   19.1884 H       1  UNL1        0.0000
     36 H           7.6371   10.3843   20.2425 H       1  UNL1        0.0000
     37 H           7.5841    8.9369   19.2181 H       1  UNL1        0.0000
     38 C           6.5866   11.4060   17.5858 C.3     1  UNL1        0.0000
     39 H           6.0248   10.5146   17.2906 H       1  UNL1        0.0000
     40 H           6.1436   11.8052   18.5019 H       1  UNL1        0.0000
     41 C           6.5578   12.4284   16.4564 C.3     1  UNL1        0.0000
     42 H           5.5289   12.6954   16.2252 H       1  UNL1        0.0000
     43 H           6.9997   11.9922   15.5613 H       1  UNL1        0.0000
     44 H           7.0953   13.3374   16.7220 H       1  UNL1        0.0000
     45 C           9.2791   12.3443   18.3974 C.3     1  UNL1        0.0000
     46 H          10.2906   11.9987   18.6181 H       1  UNL1        0.0000
     47 H           9.3396   12.9498   17.4913 H       1  UNL1        0.0000
     48 C           8.7209   13.1582   19.5556 C.3     1  UNL1        0.0000
     49 H           9.3500   14.0278   19.7375 H       1  UNL1        0.0000
     50 H           8.6898   12.5688   20.4683 H       1  UNL1        0.0000
     51 H           7.7156   13.5095   19.3378 H       1  UNL1        0.0000
     52 C          10.3179   12.0465   14.7892 C.3     1  UNL1        0.0000
     53 H          11.1957   12.6627   14.9522 H       1  UNL1        0.0000
     54 H           9.4434   12.6265   15.0646 H       1  UNL1        0.0000
     55 H          10.2388   11.8474   13.7256 H       1  UNL1        0.0000
@<TRIPOS>BOND
     1     5     4    1
     2    23    21    1
     3     6     4    1
     4     9     8    1
     5     4     8    1
     6     4     7    1
     7    22    21    1
     8    21    24    1
     9    21    18    1
    10     8    10    1
    11     8     2    1
    12    19    18    1
    13    13    11    1
    14    18     2    1
    15    18    20    1
    16     2    11    1
    17     2     3    1
    18    55    52    1
    19    11    12    1
    20    11    14    1
    21    52    53    1
    22    52    54    1
    23    52     1    1
    24     3     1    1
    25    17    14    1
    26    14    15    1
    27    14    16    1
    28    43    41    1
    29     1    29    1
    30     1    25    1
    31    42    41    1
    32    41    44    1
    33    41    38    1
    34    27    25    1
    35    26    25    1
    36    29    30    1
    37    25    28    1
    38    39    38    1
    39    47    45    1
    40    38    30    1
    41    38    40    1
    42    30    45    1
    43    30    31    1
    44    45    46    1
    45    45    48    1
    46    35    32    1
    47    37    31    1
    48    51    48    1
    49    31    32    1
    50    31    36    1
    51    48    49    1
    52    48    50    1
    53    32    34    1
    54    32    33    1
