@<TRIPOS>MOLECULE
2,3
 56 57 0 0 0
SMALL
GASTEIGER

@<TRIPOS>ATOM
      1 SI          1.1303   11.4295   14.3486 Si      1  UNL1        0.0000
      2 N           3.1379    8.1029   14.2273 N.pl3   1  UNL1        0.0000
      3 N           1.9854    9.9448   14.5681 N.3     1  UNL1        0.0000
      4 C           3.7270    7.0423   13.5538 C.ar    1  UNL1        0.0000
      5 C           5.0706    7.1589   13.1601 C.ar    1  UNL1        0.0000
      6 C           5.7997    8.4556   13.4298 C.3     1  UNL1        0.0000
      7 H           5.0634    9.2687   13.4265 H       1  UNL1        0.0000
      8 C           6.3959    8.3987   14.8372 C.3     1  UNL1        0.0000
      9 H           7.0903    7.5655   14.9225 H       1  UNL1        0.0000
     10 H           5.5926    8.2724   15.5592 H       1  UNL1        0.0000
     11 H           6.9181    9.3246   15.0640 H       1  UNL1        0.0000
     12 C           6.8762    8.7785   12.3947 C.3     1  UNL1        0.0000
     13 H           6.4849    8.6882   11.3829 H       1  UNL1        0.0000
     14 H           7.7292    8.1118   12.4948 H       1  UNL1        0.0000
     15 H           7.2309    9.7974   12.5382 H       1  UNL1        0.0000
     16 C           5.6992    6.0669   12.5877 C.ar    1  UNL1        0.0000
     17 H           6.7325    6.1367   12.2849 H       1  UNL1        0.0000
     18 C           5.0186    4.8776   12.3942 C.ar    1  UNL1        0.0000
     19 H           5.5212    4.0343   11.9436 H       1  UNL1        0.0000
     20 C           3.6979    4.7703   12.7837 C.ar    1  UNL1        0.0000
     21 H           3.1761    3.8366   12.6350 H       1  UNL1        0.0000
     22 C           3.0334    5.8396   13.3654 C.ar    1  UNL1        0.0000
     23 C           1.5982    5.6996   13.8149 C.3     1  UNL1        0.0000
     24 H           1.2609    6.6732   14.1816 H       1  UNL1        0.0000
     25 C           1.4966    4.7074   14.9753 C.3     1  UNL1        0.0000
     26 H           0.4654    4.6265   15.3127 H       1  UNL1        0.0000
     27 H           2.1042    5.0450   15.8107 H       1  UNL1        0.0000
     28 H           1.8391    3.7209   14.6717 H       1  UNL1        0.0000
     29 C           0.6907    5.2829   12.6558 C.3     1  UNL1        0.0000
     30 H           0.7961    5.9751   11.8226 H       1  UNL1        0.0000
     31 H          -0.3495    5.2816   12.9758 H       1  UNL1        0.0000
     32 H           0.9396    4.2841   12.3062 H       1  UNL1        0.0000
     33 C           2.3467    8.9833   13.7054 C.3     1  UNL1        0.0000
     34 C           1.8659    8.9473   12.3029 C.ar    1  UNL1        0.0000
     35 C           2.7531    9.0335   11.2366 C.ar    1  UNL1        0.0000
     36 H           3.8091    9.1490   11.4251 H       1  UNL1        0.0000
     37 C           2.2828    8.9813    9.9367 C.ar    1  UNL1        0.0000
     38 H           2.9768    9.0550    9.1122 H       1  UNL1        0.0000
     39 C           0.9283    8.8319    9.6903 C.ar    1  UNL1        0.0000
     40 H           0.5643    8.7892    8.6743 H       1  UNL1        0.0000
     41 C           0.0427    8.7303   10.7502 C.ar    1  UNL1        0.0000
     42 H          -1.0133    8.6013   10.5621 H       1  UNL1        0.0000
     43 C           0.5079    8.7879   12.0513 C.ar    1  UNL1        0.0000
     44 H          -0.1757    8.6920   12.8805 H       1  UNL1        0.0000
     45 C           1.3515   12.1816   16.0939 C.3     1  UNL1        0.0000
     46 H           2.2489   11.7825   16.5728 H       1  UNL1        0.0000
     47 H           0.5075   11.9489   16.7331 H       1  UNL1        0.0000
     48 H           1.4460   13.2607   16.0603 H       1  UNL1        0.0000
     49 C           1.9446   12.5137   12.9968 C.3     1  UNL1        0.0000
     50 H           1.9026   12.0189   12.0303 H       1  UNL1        0.0000
     51 H           2.9885   12.7163   13.2164 H       1  UNL1        0.0000
     52 H           1.4370   13.4679   12.8981 H       1  UNL1        0.0000
     53 C          -0.7308   11.3017   13.9276 C.3     1  UNL1        0.0000
     54 H          -0.8845   11.1374   12.8658 H       1  UNL1        0.0000
     55 H          -1.2353   12.2262   14.1918 H       1  UNL1        0.0000
     56 H          -1.2231   10.4964   14.4627 H       1  UNL1        0.0000
@<TRIPOS>BOND
     1    40    39    1
     2    38    37    1
     3    39    37   ar
     4    39    41   ar
     5    37    35   ar
     6    42    41    1
     7    41    43   ar
     8    35    36    1
     9    35    34   ar
    10    13    12    1
    11    30    29    1
    12    19    18    1
    13    50    49    1
    14    43    34   ar
    15    43    44    1
    16    17    16    1
    17    34    33    1
    18    32    29    1
    19    18    16   ar
    20    18    20   ar
    21    12    14    1
    22    12    15    1
    23    12     6    1
    24    16     5   ar
    25    21    20    1
    26    29    31    1
    27    29    23    1
    28    20    22   ar
    29    54    53    1
    30    52    49    1
    31    49    51    1
    32    49     1    1
    33     5     6    1
    34     5     4   ar
    35    22     4   ar
    36    22    23    1
    37     7     6    1
    38     6     8    1
    39     4     2    1
    40    33     2    1
    41    33     3    1
    42    23    24    1
    43    23    25    1
    44    53    55    1
    45    53     1    1
    46    53    56    1
    47     1     3    1
    48     1    45    1
    49    28    25    1
    50     8     9    1
    51     8    11    1
    52     8    10    1
    53    25    26    1
    54    25    27    1
    55    48    45    1
    56    45    46    1
    57    45    47    1
