@<TRIPOS>MOLECULE
2,3
 56 57 0 0 0
SMALL
GASTEIGER

@<TRIPOS>ATOM
      1 SI          5.6287   11.5806   17.2167 Si      1  UNL1        0.0000
      2 N           3.4839    8.4404   17.4853 N.pl3   1  UNL1        0.0000
      3 N           4.8254   10.0692   17.1698 N.3     1  UNL1        0.0000
      4 C           2.8615    7.2886   17.9275 C.ar    1  UNL1        0.0000
      5 C           1.4673    7.3256   18.1053 C.ar    1  UNL1        0.0000
      6 C           0.7051    8.5969   17.8111 C.3     1  UNL1        0.0000
      7 H           1.4276    9.3623   17.4853 H       1  UNL1        0.0000
      8 C          -0.2675    8.3723   16.6542 C.3     1  UNL1        0.0000
      9 H          -0.9791    7.5834   16.8866 H       1  UNL1        0.0000
     10 H           0.2915    8.0930   15.7653 H       1  UNL1        0.0000
     11 H          -0.8166    9.2875   16.4466 H       1  UNL1        0.0000
     12 C          -0.0230    9.1157   19.0520 C.3     1  UNL1        0.0000
     13 H           0.6792    9.2859   19.8653 H       1  UNL1        0.0000
     14 H          -0.7715    8.4033   19.3909 H       1  UNL1        0.0000
     15 H          -0.5233   10.0560   18.8295 H       1  UNL1        0.0000
     16 C           0.8090    6.1890   18.5426 C.ar    1  UNL1        0.0000
     17 H          -0.2599    6.2118   18.6957 H       1  UNL1        0.0000
     18 C           1.5049    5.0189   18.7865 C.ar    1  UNL1        0.0000
     19 H           0.9832    4.1387   19.1322 H       1  UNL1        0.0000
     20 C           2.8682    4.9737   18.5627 C.ar    1  UNL1        0.0000
     21 H           3.3966    4.0459   18.7227 H       1  UNL1        0.0000
     22 C           3.5680    6.0891   18.1276 C.ar    1  UNL1        0.0000
     23 C           5.0415    5.9793   17.8149 C.3     1  UNL1        0.0000
     24 H           5.4253    6.9727   17.5714 H       1  UNL1        0.0000
     25 C           5.2395    5.0937   16.5809 C.3     1  UNL1        0.0000
     26 H           6.2971    5.0212   16.3370 H       1  UNL1        0.0000
     27 H           4.7181    5.5170   15.7259 H       1  UNL1        0.0000
     28 H           4.8579    4.0907   16.7571 H       1  UNL1        0.0000
     29 C           5.8391    5.4464   19.0068 C.3     1  UNL1        0.0000
     30 H           5.6527    6.0508   19.8919 H       1  UNL1        0.0000
     31 H           6.9039    5.4794   18.7860 H       1  UNL1        0.0000
     32 H           5.5709    4.4167   19.2295 H       1  UNL1        0.0000
     33 C           4.4659    9.1236   18.0257 C.3     1  UNL1        0.0000
     34 C           5.0144    8.9151   19.3751 C.ar    1  UNL1        0.0000
     35 C           4.1795    8.5530   20.4300 C.ar    1  UNL1        0.0000
     36 H           3.1220    8.4256   20.2551 H       1  UNL1        0.0000
     37 C           4.7016    8.3642   21.6960 C.ar    1  UNL1        0.0000
     38 H           4.0475    8.0875   22.5100 H       1  UNL1        0.0000
     39 C           6.0591    8.5254   21.9227 C.ar    1  UNL1        0.0000
     40 H           6.4644    8.3735   22.9122 H       1  UNL1        0.0000
     41 C           6.8954    8.8756   20.8748 C.ar    1  UNL1        0.0000
     42 H           7.9556    8.9914   21.0467 H       1  UNL1        0.0000
     43 C           6.3778    9.0704   19.6086 C.ar    1  UNL1        0.0000
     44 H           7.0226    9.3231   18.7832 H       1  UNL1        0.0000
     45 C           5.1179   12.2623   15.5021 C.3     1  UNL1        0.0000
     46 H           4.4676   11.5370   15.0038 H       1  UNL1        0.0000
     47 H           5.9741   12.4333   14.8592 H       1  UNL1        0.0000
     48 H           4.5758   13.1982   15.5779 H       1  UNL1        0.0000
     49 C           4.9814   12.6940   18.6320 C.3     1  UNL1        0.0000
     50 H           5.1873   12.2435   19.5988 H       1  UNL1        0.0000
     51 H           3.9075   12.8384   18.5618 H       1  UNL1        0.0000
     52 H           5.4488   13.6733   18.6192 H       1  UNL1        0.0000
     53 C           7.5389   11.5351   17.3294 C.3     1  UNL1        0.0000
     54 H           7.8785   11.4966   18.3597 H       1  UNL1        0.0000
     55 H           7.9600   12.4317   16.8844 H       1  UNL1        0.0000
     56 H           7.9613   10.6829   16.8061 H       1  UNL1        0.0000
@<TRIPOS>BOND
     1    47    45    1
     2    46    45    1
     3    45    48    1
     4    45     1    1
     5    27    25    1
     6    10     8    1
     7    26    25    1
     8    11     8    1
     9    25    28    1
    10    25    23    1
    11     8     9    1
    12     8     6    1
    13    56    53    1
    14    55    53    1
    15     3     1    1
    16     3    33    1
    17     1    53    1
    18     1    49    1
    19    53    54    1
    20     2     4    1
    21     2    33    1
    22     7     6    1
    23    24    23    1
    24     6     5    1
    25     6    12    1
    26    23    22    1
    27    23    29    1
    28     4     5   ar
    29     4    22   ar
    30    33    34    1
    31     5    16   ar
    32    22    20   ar
    33    16    17    1
    34    16    18   ar
    35    51    49    1
    36    20    21    1
    37    20    18   ar
    38    52    49    1
    39    49    50    1
    40    44    43    1
    41    31    29    1
    42    18    19    1
    43    15    12    1
    44    29    32    1
    45    29    30    1
    46    12    14    1
    47    12    13    1
    48    34    43   ar
    49    34    35   ar
    50    43    41   ar
    51    36    35    1
    52    35    37   ar
    53    41    42    1
    54    41    39   ar
    55    37    39   ar
    56    37    38    1
    57    39    40    1
