@<TRIPOS>MOLECULE
2,21
 38 38 0 0 0
SMALL
GASTEIGER

@<TRIPOS>ATOM
      1 SI          3.0332   -2.8934    4.3396 Si      1  UNL1        0.0000
      2 N           2.8810   -1.3217    3.6196 N.pl3   1  UNL1        0.0000
      3 C           1.6464   -0.7139    3.4810 C.ar    1  UNL1        0.0000
      4 C           0.4285   -1.3844    3.3792 C.ar    1  UNL1        0.0000
      5 C          -0.7664   -0.6918    3.2687 C.ar    1  UNL1        0.0000
      6 C           1.7150   -3.2128    5.6978 C.3     1  UNL1        0.0000
      7 C           2.8808   -4.3000    3.0306 C.3     1  UNL1        0.0000
      8 C           4.7469   -3.0237    5.1717 C.3     1  UNL1        0.0000
      9 H           0.4269   -2.4634    3.3748 H       1  UNL1        0.0000
     10 H          -1.6949   -1.2371    3.1837 H       1  UNL1        0.0000
     11 H           0.8985   -3.8293    5.3371 H       1  UNL1        0.0000
     12 H           1.2860   -2.2827    6.0585 H       1  UNL1        0.0000
     13 H           2.1547   -3.7260    6.5469 H       1  UNL1        0.0000
     14 H           1.9592   -4.2386    2.4584 H       1  UNL1        0.0000
     15 H           2.8935   -5.2674    3.5223 H       1  UNL1        0.0000
     16 H           3.7079   -4.2847    2.3271 H       1  UNL1        0.0000
     17 H           5.4675   -2.3590    4.7008 H       1  UNL1        0.0000
     18 H           5.1294   -4.0372    5.1121 H       1  UNL1        0.0000
     19 H           4.6982   -2.7572    6.2224 H       1  UNL1        0.0000
     20 C           1.6463    0.7137    3.4812 C.ar    1  UNL1        0.0000
     21 N           2.8810    1.3215    3.6199 N.pl3   1  UNL1        0.0000
     22 SI          3.0331    2.8933    4.3397 Si      1  UNL1        0.0000
     23 C           1.7150    3.2128    5.6980 C.3     1  UNL1        0.0000
     24 H           0.8986    3.8296    5.3373 H       1  UNL1        0.0000
     25 H           1.2858    2.2827    6.0585 H       1  UNL1        0.0000
     26 H           2.1549    3.7258    6.5471 H       1  UNL1        0.0000
     27 C           2.8805    4.2995    3.0303 C.3     1  UNL1        0.0000
     28 H           1.9587    4.2380    2.4584 H       1  UNL1        0.0000
     29 H           2.8934    5.2671    3.5217 H       1  UNL1        0.0000
     30 H           3.7073    4.2839    2.3266 H       1  UNL1        0.0000
     31 C           4.7469    3.0244    5.1715 C.3     1  UNL1        0.0000
     32 H           5.4670    2.3579    4.7022 H       1  UNL1        0.0000
     33 H           5.1301    4.0374    5.1094 H       1  UNL1        0.0000
     34 H           4.6980    2.7605    6.2229 H       1  UNL1        0.0000
     35 C           0.4284    1.3841    3.3796 C.ar    1  UNL1        0.0000
     36 C          -0.7664    0.6915    3.2689 C.ar    1  UNL1        0.0000
     37 H          -1.6950    1.2367    3.1842 H       1  UNL1        0.0000
     38 H           0.4267    2.4631    3.3756 H       1  UNL1        0.0000
@<TRIPOS>BOND
     1    30    27    1
     2    16     7    1
     3    28    27    1
     4    14     7    1
     5    27    29    1
     6    27    22    1
     7     7    15    1
     8     7     1    1
     9    10     5    1
    10    37    36    1
    11     5    36   ar
    12     5     4   ar
    13    36    35   ar
    14     9     4    1
    15    38    35    1
    16     4     3   ar
    17    35    20   ar
    18     3    20   ar
    19     3     2    1
    20    20    21    1
    21     2     1    1
    22    21    22    1
    23     1     8    1
    24     1     6    1
    25    22    31    1
    26    22    23    1
    27    17     8    1
    28    32    31    1
    29    33    31    1
    30    18     8    1
    31    31    34    1
    32     8    19    1
    33    11     6    1
    34    24    23    1
    35     6    12    1
    36     6    13    1
    37    23    25    1
    38    23    26    1
