@<TRIPOS>MOLECULE
3,4
 38 38 0 0 0
SMALL
GASTEIGER

@<TRIPOS>ATOM
      1 SI          8.8428    2.9453   -0.8596 Si      1  UNL1        0.0000
      2 SI          6.8459    7.2891    2.0620 Si      1  UNL1        0.0000
      3 N           8.8244    3.8962    0.5821 N.pl3   1  UNL1        0.0000
      4 N           7.9165    5.9421    1.9444 N.pl3   1  UNL1        0.0000
      5 C           7.0914    8.4424    3.5764 C.3     1  UNL1        0.0000
      6 C           6.9384    8.3580    0.4773 C.3     1  UNL1        0.0000
      7 C           5.1943    6.3399    2.2095 C.3     1  UNL1        0.0000
      8 C           7.1200    2.1214   -0.7498 C.3     1  UNL1        0.0000
      9 C          10.2057    1.5966   -0.9626 C.3     1  UNL1        0.0000
     10 C           9.0157    4.0809   -2.3905 C.3     1  UNL1        0.0000
     11 C           9.7814    4.7896    1.0143 C.ar    1  UNL1        0.0000
     12 C          11.1475    4.7226    0.7361 C.ar    1  UNL1        0.0000
     13 C          12.0096    5.7112    1.1791 C.ar    1  UNL1        0.0000
     14 C          11.5260    6.8020    1.8853 C.ar    1  UNL1        0.0000
     15 C          10.1741    6.9152    2.1609 C.ar    1  UNL1        0.0000
     16 C           9.2794    5.9237    1.7559 C.ar    1  UNL1        0.0000
     17 H           7.8695    9.1800    3.4011 H       1  UNL1        0.0000
     18 H           7.3569    7.8895    4.4730 H       1  UNL1        0.0000
     19 H           6.1761    8.9862    3.7874 H       1  UNL1        0.0000
     20 H           7.9300    8.7821    0.3467 H       1  UNL1        0.0000
     21 H           6.2316    9.1797    0.5209 H       1  UNL1        0.0000
     22 H           6.7136    7.7736   -0.4101 H       1  UNL1        0.0000
     23 H           5.0252    5.7341    1.3202 H       1  UNL1        0.0000
     24 H           4.3406    6.9980    2.3297 H       1  UNL1        0.0000
     25 H           5.2223    5.6609    3.0640 H       1  UNL1        0.0000
     26 H           6.7447    2.2024    0.2783 H       1  UNL1        0.0000
     27 H           7.1505    1.0710   -1.0182 H       1  UNL1        0.0000
     28 H           6.4029    2.5994   -1.4099 H       1  UNL1        0.0000
     29 H          10.3708    1.1093   -0.0058 H       1  UNL1        0.0000
     30 H          11.1568    2.0036   -1.2942 H       1  UNL1        0.0000
     31 H           9.9215    0.8289   -1.6756 H       1  UNL1        0.0000
     32 H           9.9633    4.6119   -2.3807 H       1  UNL1        0.0000
     33 H           8.2253    4.8251   -2.4245 H       1  UNL1        0.0000
     34 H           8.9694    3.5054   -3.3089 H       1  UNL1        0.0000
     35 H          11.5190    3.8895    0.1579 H       1  UNL1        0.0000
     36 H          13.0639    5.6360    0.9589 H       1  UNL1        0.0000
     37 H          12.2037    7.5757    2.2135 H       1  UNL1        0.0000
     38 H           9.7885    7.7771    2.6857 H       1  UNL1        0.0000
@<TRIPOS>BOND
     1    34    10    1
     2    33    10    1
     3    10    32    1
     4    10     1    1
     5    31     9    1
     6    28     8    1
     7    30     9    1
     8    27     8    1
     9     9     1    1
    10     9    29    1
    11     1     8    1
    12     1     3    1
    13     8    26    1
    14    22     6    1
    15    35    12    1
    16    20     6    1
    17     6    21    1
    18     6     2    1
    19     3    11    1
    20    12    11   ar
    21    12    13   ar
    22    36    13    1
    23    11    16   ar
    24    13    14   ar
    25    23     7    1
    26    16     4    1
    27    16    15   ar
    28    14    15   ar
    29    14    37    1
    30     4     2    1
    31     2     7    1
    32     2     5    1
    33    15    38    1
    34     7    24    1
    35     7    25    1
    36    17     5    1
    37     5    19    1
    38     5    18    1
