@<TRIPOS>MOLECULE
3,4
 38 38 0 0 0
SMALL
GASTEIGER

@<TRIPOS>ATOM
      1 SI          2.9743    2.5018    6.6855 Si      1  UNL1        0.0000
      2 SI         -1.0441    0.9485    2.7479 Si      1  UNL1        0.0000
      3 N           1.8011    2.6845    5.4018 N.pl3   1  UNL1        0.0000
      4 N           0.0197    1.9966    3.6575 N.pl3   1  UNL1        0.0000
      5 C           0.5576    3.2616    5.5847 C.ar    1  UNL1        0.0000
      6 C          -0.4254    2.8820    4.6222 C.ar    1  UNL1        0.0000
      7 C          -1.7159    3.3918    4.7341 C.ar    1  UNL1        0.0000
      8 C          -2.0420    4.2644    5.7598 C.ar    1  UNL1        0.0000
      9 C          -1.0884    4.6326    6.6937 C.ar    1  UNL1        0.0000
     10 C           0.2009    4.1318    6.6111 C.ar    1  UNL1        0.0000
     11 C           2.1131    2.1214    8.3528 C.3     1  UNL1        0.0000
     12 C           4.0354    0.9929    6.2085 C.3     1  UNL1        0.0000
     13 C           4.0639    4.0722    6.8506 C.3     1  UNL1        0.0000
     14 C          -2.5027    0.3403    3.8287 C.3     1  UNL1        0.0000
     15 C           0.0085   -0.5658    2.2685 C.3     1  UNL1        0.0000
     16 C          -1.7137    1.8339    1.1831 C.3     1  UNL1        0.0000
     17 H          -2.4566    3.1099    4.0021 H       1  UNL1        0.0000
     18 H          -3.0454    4.6571    5.8264 H       1  UNL1        0.0000
     19 H          -1.3454    5.3133    7.4912 H       1  UNL1        0.0000
     20 H           0.9463    4.4234    7.3345 H       1  UNL1        0.0000
     21 H           2.6346    1.3275    8.8763 H       1  UNL1        0.0000
     22 H           1.0838    1.8061    8.2120 H       1  UNL1        0.0000
     23 H           2.1056    2.9862    9.0072 H       1  UNL1        0.0000
     24 H           4.7310    0.7396    7.0021 H       1  UNL1        0.0000
     25 H           4.6202    1.1767    5.3105 H       1  UNL1        0.0000
     26 H           3.4099    0.1226    6.0232 H       1  UNL1        0.0000
     27 H           4.7992    3.9317    7.6362 H       1  UNL1        0.0000
     28 H           3.4849    4.9574    7.1002 H       1  UNL1        0.0000
     29 H           4.6047    4.2706    5.9291 H       1  UNL1        0.0000
     30 H          -2.6913   -0.7129    3.6509 H       1  UNL1        0.0000
     31 H          -3.4202    0.8728    3.6031 H       1  UNL1        0.0000
     32 H          -2.3002    0.4674    4.8878 H       1  UNL1        0.0000
     33 H          -0.5995   -1.3277    1.7913 H       1  UNL1        0.0000
     34 H           0.4703   -1.0101    3.1475 H       1  UNL1        0.0000
     35 H           0.8034   -0.3030    1.5748 H       1  UNL1        0.0000
     36 H          -2.3520    1.1596    0.6214 H       1  UNL1        0.0000
     37 H          -0.9015    2.1364    0.5275 H       1  UNL1        0.0000
     38 H          -2.3016    2.7160    1.4225 H       1  UNL1        0.0000
@<TRIPOS>BOND
     1    37    16    1
     2    36    16    1
     3    16    38    1
     4    16     2    1
     5    35    15    1
     6    33    15    1
     7    15     2    1
     8    15    34    1
     9     2     4    1
    10     2    14    1
    11    31    14    1
    12    30    14    1
    13     4     6    1
    14    14    32    1
    15    17     7    1
    16     6     7   ar
    17     6     5   ar
    18     7     8   ar
    19    25    12    1
    20     3     5    1
    21     3     1    1
    22     5    10   ar
    23     8    18    1
    24     8     9   ar
    25    29    13    1
    26    26    12    1
    27    12     1    1
    28    12    24    1
    29    10     9   ar
    30    10    20    1
    31     1    13    1
    32     1    11    1
    33     9    19    1
    34    13    28    1
    35    13    27    1
    36    22    11    1
    37    11    21    1
    38    11    23    1
