@<TRIPOS>MOLECULE
3,4
 38 38 0 0 0
SMALL
GASTEIGER

@<TRIPOS>ATOM
      1 SI          1.3122    5.4624    3.9374 Si      1  UNL1        0.0000
      2 SI          5.9486    1.9707    2.1954 Si      1  UNL1        0.0000
      3 N           2.5024    4.2709    3.5495 N.pl3   1  UNL1        0.0000
      4 N           4.5168    2.6317    2.9505 N.pl3   1  UNL1        0.0000
      5 C           2.1967    3.1966    2.7398 C.ar    1  UNL1        0.0000
      6 C           0.9506    2.9420    2.1670 C.ar    1  UNL1        0.0000
      7 C           0.7107    1.7823    1.4519 C.ar    1  UNL1        0.0000
      8 C           1.7123    0.8418    1.2960 C.ar    1  UNL1        0.0000
      9 C           2.9748    1.0930    1.8075 C.ar    1  UNL1        0.0000
     10 C           3.2506    2.2712    2.4907 C.ar    1  UNL1        0.0000
     11 C           0.9018    6.6246    2.4670 C.3     1  UNL1        0.0000
     12 C          -0.3495    4.7812    4.6263 C.3     1  UNL1        0.0000
     13 C           2.0894    6.5320    5.3305 C.3     1  UNL1        0.0000
     14 C           5.7194    1.6605    0.3170 C.3     1  UNL1        0.0000
     15 C           6.5108    0.3352    3.0336 C.3     1  UNL1        0.0000
     16 C           7.2950    3.3111    2.3659 C.3     1  UNL1        0.0000
     17 H           0.1590    3.6616    2.2957 H       1  UNL1        0.0000
     18 H          -0.2679    1.6108    1.0284 H       1  UNL1        0.0000
     19 H           1.5215   -0.0804    0.7685 H       1  UNL1        0.0000
     20 H           3.7603    0.3648    1.6801 H       1  UNL1        0.0000
     21 H           1.7860    7.1262    2.0838 H       1  UNL1        0.0000
     22 H           0.1960    7.3908    2.7721 H       1  UNL1        0.0000
     23 H           0.4580    6.0797    1.6398 H       1  UNL1        0.0000
     24 H          -0.3155    3.7067    4.7795 H       1  UNL1        0.0000
     25 H          -1.1676    4.9835    3.9415 H       1  UNL1        0.0000
     26 H          -0.6071    5.2414    5.5758 H       1  UNL1        0.0000
     27 H           2.2624    7.5478    4.9903 H       1  UNL1        0.0000
     28 H           3.0428    6.1115    5.6689 H       1  UNL1        0.0000
     29 H           1.4291    6.5996    6.1890 H       1  UNL1        0.0000
     30 H           5.5890    0.6075    0.0920 H       1  UNL1        0.0000
     31 H           6.5892    2.0013   -0.2354 H       1  UNL1        0.0000
     32 H           4.8520    2.1855   -0.0717 H       1  UNL1        0.0000
     33 H           5.7978   -0.4703    2.8794 H       1  UNL1        0.0000
     34 H           6.6369    0.4555    4.1061 H       1  UNL1        0.0000
     35 H           7.4616    0.0087    2.6239 H       1  UNL1        0.0000
     36 H           7.2009    3.8137    3.3245 H       1  UNL1        0.0000
     37 H           7.2197    4.0567    1.5797 H       1  UNL1        0.0000
     38 H           8.2864    2.8758    2.3012 H       1  UNL1        0.0000
@<TRIPOS>BOND
     1    31    14    1
     2    32    14    1
     3    30    14    1
     4    14     2    1
     5    19     8    1
     6    18     7    1
     7     8     7   ar
     8     8     9   ar
     9     7     6   ar
    10    37    16    1
    11    23    11    1
    12    20     9    1
    13     9    10   ar
    14    21    11    1
    15     6    17    1
    16     6     5   ar
    17     2    16    1
    18     2     4    1
    19     2    15    1
    20    38    16    1
    21    16    36    1
    22    11    22    1
    23    11     1    1
    24    10     5   ar
    25    10     4    1
    26    35    15    1
    27     5     3    1
    28    33    15    1
    29    15    34    1
    30     3     1    1
    31     1    12    1
    32     1    13    1
    33    25    12    1
    34    12    24    1
    35    12    26    1
    36    27    13    1
    37    13    28    1
    38    13    29    1
