@<TRIPOS>MOLECULE
1,2
 38 37 0 0 0
SMALL
GASTEIGER

@<TRIPOS>ATOM
      1 N           1.0215    4.4868    4.8878 N.pl3   1  UNL1       -0.2479
      2 N           2.2967    3.2791    2.8276 N.pl3   1  UNL1       -0.2479
      3 C           2.1833    5.0953    4.3937 C.2     1  UNL1        0.0409
      4 C           2.8361    4.4693    3.3635 C.2     1  UNL1        0.0409
      5 C           2.7633    6.3957    4.9172 C.3     1  UNL1       -0.0235
      6 C           4.0690    5.0903    2.7372 C.3     1  UNL1       -0.0235
      7 C           0.2926    4.9387    6.0637 C.3     1  UNL1        0.0450
      8 C          -0.8495    3.9136    6.2689 C.3     1  UNL1       -0.0424
      9 C          -0.3854    6.3141    5.8675 C.3     1  UNL1       -0.0424
     10 C           1.1421    4.9204    7.3559 C.3     1  UNL1       -0.0424
     11 C           3.1257    2.0841    2.7377 C.3     1  UNL1        0.0450
     12 C           2.1647    0.9214    2.3953 C.3     1  UNL1       -0.0424
     13 C           4.2075    2.1119    1.6314 C.3     1  UNL1       -0.0424
     14 C           3.8268    1.8209    4.0886 C.3     1  UNL1       -0.0424
     15 H           3.8269    6.2705    5.1183 H       1  UNL1        0.0291
     16 H           2.2946    6.7297    5.8323 H       1  UNL1        0.0291
     17 H           2.6592    7.1935    4.1774 H       1  UNL1        0.0291
     18 H           3.9698    6.1726    2.6735 H       1  UNL1        0.0291
     19 H           4.2026    4.7148    1.7283 H       1  UNL1        0.0291
     20 H           4.9741    4.8770    3.3118 H       1  UNL1        0.0291
     21 H          -0.4845    3.0595    6.8365 H       1  UNL1        0.0251
     22 H          -1.2089    3.5689    5.2851 H       1  UNL1        0.0251
     23 H          -1.6700    4.3646    6.8263 H       1  UNL1        0.0251
     24 H          -1.1014    6.2385    5.0516 H       1  UNL1        0.0251
     25 H           0.3247    7.0972    5.6251 H       1  UNL1        0.0251
     26 H          -0.9110    6.6021    6.7766 H       1  UNL1        0.0251
     27 H           1.7705    4.0312    7.3576 H       1  UNL1        0.0251
     28 H           0.4884    4.8934    8.2255 H       1  UNL1        0.0251
     29 H           1.7847    5.7890    7.4518 H       1  UNL1        0.0251
     30 H           2.5549   -0.0223    2.7747 H       1  UNL1        0.0251
     31 H           2.0595    0.8313    1.3149 H       1  UNL1        0.0251
     32 H           1.1739    1.1330    2.8289 H       1  UNL1        0.0251
     33 H           3.7875    2.4987    0.7047 H       1  UNL1        0.0251
     34 H           4.5656    1.0996    1.4526 H       1  UNL1        0.0251
     35 H           5.0589    2.7212    1.9162 H       1  UNL1        0.0251
     36 H           3.0980    1.8583    4.8974 H       1  UNL1        0.0251
     37 H           4.5691    2.5939    4.2721 H       1  UNL1        0.0251
     38 H           4.3279    0.8549    4.0891 H       1  UNL1        0.0251
@<TRIPOS>BOND
     1    33    13    1
     2    31    12    1
     3    34    13    1
     4    13    35    1
     5    13    11    1
     6    19     6    1
     7    12    11    1
     8    12    30    1
     9    12    32    1
    10    18     6    1
    11     6    20    1
    12     6     4    1
    13    11     2    1
    14    11    14    1
    15     2     4    1
    16     4     3    2
    17    14    38    1
    18    14    37    1
    19    14    36    1
    20    17     5    1
    21     3     1    1
    22     3     5    1
    23     1     7    1
    24     5    15    1
    25     5    16    1
    26    24     9    1
    27    22     8    1
    28    25     9    1
    29     9     7    1
    30     9    26    1
    31     7     8    1
    32     7    10    1
    33     8    23    1
    34     8    21    1
    35    10    27    1
    36    10    29    1
    37    10    28    1
