@<TRIPOS>MOLECULE
1,2
 46 47 0 0 0
SMALL
GASTEIGER

@<TRIPOS>ATOM
      1 N           5.0535    3.1820    1.9002 N.pl3   1  UNL1       -0.2175
      2 N           4.6136    1.1739    3.6555 N.pl3   1  UNL1       -0.2175
      3 C           5.8835    3.0848    3.0326 C.2     1  UNL1        0.0467
      4 C           5.6624    2.0753    3.9150 C.2     1  UNL1        0.0467
      5 C           6.8414    4.2118    3.3354 C.3     1  UNL1       -0.0231
      6 C           6.3594    2.0197    5.2530 C.3     1  UNL1       -0.0231
      7 C           5.5158    3.7731    0.7316 C.ar    1  UNL1        0.0592
      8 C           6.7605    3.4614    0.1382 C.ar    1  UNL1       -0.0272
      9 C           7.1487    4.1068   -1.0254 C.ar    1  UNL1       -0.0570
     10 C           6.3389    5.0469   -1.6364 C.ar    1  UNL1       -0.0611
     11 C           5.1085    5.3438   -1.0746 C.ar    1  UNL1       -0.0570
     12 C           4.6926    4.7279    0.0925 C.ar    1  UNL1       -0.0272
     13 C           7.6365    2.3888    0.7136 C.3     1  UNL1       -0.0379
     14 C           3.3894    5.1101    0.7364 C.3     1  UNL1       -0.0379
     15 C           4.6590   -0.1275    4.1377 C.ar    1  UNL1        0.0592
     16 C           3.5086   -0.6441    4.7765 C.ar    1  UNL1       -0.0272
     17 C           3.5007   -1.9366    5.2700 C.ar    1  UNL1       -0.0570
     18 C           4.6179   -2.7475    5.1586 C.ar    1  UNL1       -0.0611
     19 C           5.7467   -2.2554    4.5290 C.ar    1  UNL1       -0.0570
     20 C           5.7874   -0.9699    4.0122 C.ar    1  UNL1       -0.0272
     21 C           2.3201    0.2557    4.9699 C.3     1  UNL1       -0.0379
     22 C           7.0060   -0.5151    3.2658 C.3     1  UNL1       -0.0379
     23 H           7.8343    3.8394    3.5855 H       1  UNL1        0.0291
     24 H           6.4854    4.7921    4.1897 H       1  UNL1        0.0291
     25 H           6.9227    4.8774    2.4787 H       1  UNL1        0.0291
     26 H           7.4426    2.0615    5.1444 H       1  UNL1        0.0291
     27 H           6.0950    1.1039    5.7774 H       1  UNL1        0.0291
     28 H           6.0599    2.8691    5.8713 H       1  UNL1        0.0291
     29 H           8.1025    3.8547   -1.4680 H       1  UNL1        0.0621
     30 H           6.6594    5.5381   -2.5423 H       1  UNL1        0.0618
     31 H           4.4660    6.0764   -1.5436 H       1  UNL1        0.0621
     32 H           8.2822    2.7761    1.5000 H       1  UNL1        0.0278
     33 H           8.2690    1.9625   -0.0628 H       1  UNL1        0.0278
     34 H           7.0152    1.6020    1.1421 H       1  UNL1        0.0278
     35 H           2.8708    4.2193    1.1289 H       1  UNL1        0.0278
     36 H           2.7500    5.6288    0.0238 H       1  UNL1        0.0278
     37 H           3.5942    5.7917    1.5669 H       1  UNL1        0.0278
     38 H           2.6122   -2.3098    5.7607 H       1  UNL1        0.0621
     39 H           4.6062   -3.7518    5.5534 H       1  UNL1        0.0618
     40 H           6.6170   -2.8880    4.4219 H       1  UNL1        0.0621
     41 H           2.1292    0.8536    4.0627 H       1  UNL1        0.0278
     42 H           2.5265    0.9357    5.8016 H       1  UNL1        0.0278
     43 H           1.4368   -0.3286    5.2227 H       1  UNL1        0.0278
     44 H           7.5408   -1.3721    2.8607 H       1  UNL1        0.0278
     45 H           7.6896    0.0348    3.9107 H       1  UNL1        0.0278
     46 H           6.7096    0.1421    2.4483 H       1  UNL1        0.0278
@<TRIPOS>BOND
     1    30    10    1
     2    10    11   ar
     3    10     9   ar
     4    31    11    1
     5    29     9    1
     6    11    12   ar
     7     9     8   ar
     8    33    13    1
     9    36    14    1
    10    12     7   ar
    11    12    14    1
    12     8    13    1
    13     8     7   ar
    14    13    34    1
    15    13    32    1
    16     7     1    1
    17    14    35    1
    18    14    37    1
    19     1     3    1
    20    46    22    1
    21    25     5    1
    22    44    22    1
    23     3     5    1
    24     3     4    2
    25    22    45    1
    26    22    20    1
    27     5    23    1
    28     5    24    1
    29     2     4    1
    30     2    15    1
    31     4     6    1
    32    20    15   ar
    33    20    19   ar
    34    41    21    1
    35    15    16   ar
    36    40    19    1
    37    19    18   ar
    38    16    21    1
    39    16    17   ar
    40    21    43    1
    41    21    42    1
    42    26     6    1
    43    18    17   ar
    44    18    39    1
    45     6    27    1
    46     6    28    1
    47    17    38    1
