@<TRIPOS>MOLECULE
3,4
 40 40 0 0 0
SMALL
GASTEIGER

@<TRIPOS>ATOM
      1 SI          7.3481    4.0121    6.2787 Si      1  UNL1        0.0000
      2 SI          4.0284    0.1616    4.3823 Si      1  UNL1        0.0000
      3 N           6.8797    2.5544    5.4640 N.3     1  UNL1        0.0000
      4 N           5.5450    0.9353    4.6904 N.3     1  UNL1        0.0000
      5 C           9.2356    4.1051    5.9777 C.3     1  UNL1        0.0000
      6 C           7.0375    4.0332    8.1706 C.3     1  UNL1        0.0000
      7 C           6.4346    5.4930    5.4764 C.3     1  UNL1        0.0000
      8 C           3.0705   -0.4372    5.9302 C.3     1  UNL1        0.0000
      9 C           2.9416    1.3688    3.3646 C.3     1  UNL1        0.0000
     10 C           4.4032   -1.4112    3.3478 C.3     1  UNL1        0.0000
     11 C           5.7842    1.8452    5.6125 C.3     1  UNL1        0.0000
     12 C           4.8504    2.1033    6.7318 C.ar    1  UNL1        0.0000
     13 C           4.9572    1.4159    7.9332 C.ar    1  UNL1        0.0000
     14 C           4.0747    1.6899    8.9637 C.ar    1  UNL1        0.0000
     15 C           3.0871    2.6468    8.7977 C.ar    1  UNL1        0.0000
     16 C           2.9812    3.3335    7.5986 C.ar    1  UNL1        0.0000
     17 C           3.8609    3.0652    6.5651 C.ar    1  UNL1        0.0000
     18 H           9.7842    3.5124    6.7042 H       1  UNL1        0.0000
     19 H           9.4688    3.7318    4.9822 H       1  UNL1        0.0000
     20 H           9.5973    5.1255    6.0511 H       1  UNL1        0.0000
     21 H           5.9864    4.1584    8.4085 H       1  UNL1        0.0000
     22 H           7.3763    3.1228    8.6553 H       1  UNL1        0.0000
     23 H           7.5767    4.8616    8.6182 H       1  UNL1        0.0000
     24 H           7.0548    6.3829    5.4386 H       1  UNL1        0.0000
     25 H           6.1503    5.2388    4.4540 H       1  UNL1        0.0000
     26 H           5.5279    5.7472    6.0186 H       1  UNL1        0.0000
     27 H           2.6343    0.3844    6.4882 H       1  UNL1        0.0000
     28 H           2.2621   -1.0967    5.6313 H       1  UNL1        0.0000
     29 H           3.7106   -0.9917    6.6098 H       1  UNL1        0.0000
     30 H           2.2238    1.8892    3.9922 H       1  UNL1        0.0000
     31 H           3.5770    2.1229    2.8956 H       1  UNL1        0.0000
     32 H           2.3847    0.8627    2.5822 H       1  UNL1        0.0000
     33 H           3.6005   -2.1309    3.4682 H       1  UNL1        0.0000
     34 H           4.4760   -1.1859    2.2880 H       1  UNL1        0.0000
     35 H           5.3264   -1.8951    3.6522 H       1  UNL1        0.0000
     36 H           5.7306    0.6709    8.0537 H       1  UNL1        0.0000
     37 H           4.1568    1.1565    9.8995 H       1  UNL1        0.0000
     38 H           2.3999    2.8582    9.6039 H       1  UNL1        0.0000
     39 H           2.2109    4.0799    7.4703 H       1  UNL1        0.0000
     40 H           3.7961    3.5900    5.6225 H       1  UNL1        0.0000
@<TRIPOS>BOND
     1    34    10    1
     2    32     9    1
     3    31     9    1
     4    10    33    1
     5    10    35    1
     6    10     2    1
     7     9    30    1
     8     9     2    1
     9     2     4    1
    10     2     8    1
    11    25     7    1
    12     4    11    1
    13    19     5    1
    14    24     7    1
    15     3    11    1
    16     3     1    1
    17     7    26    1
    18     7     1    1
    19    11    12    1
    20    40    17    1
    21    28     8    1
    22     8    27    1
    23     8    29    1
    24     5    20    1
    25     5     1    1
    26     5    18    1
    27     1     6    1
    28    17    12   ar
    29    17    16   ar
    30    12    13   ar
    31    39    16    1
    32    16    15   ar
    33    13    36    1
    34    13    14   ar
    35     6    21    1
    36     6    23    1
    37     6    22    1
    38    15    14   ar
    39    15    38    1
    40    14    37    1
