@<TRIPOS>MOLECULE
3,4
 40 40 0 0 0
SMALL
GASTEIGER

@<TRIPOS>ATOM
      1 SI          9.5916    3.1382    1.7893 Si      1  UNL1        0.0000
      2 SI          9.0324   -0.5665    5.8617 Si      1  UNL1        0.0000
      3 N           8.9390    2.0564    2.9771 N.3     1  UNL1        0.0000
      4 N           8.7158    0.4929    4.5548 N.3     1  UNL1        0.0000
      5 C          11.4758    3.0341    1.4659 C.3     1  UNL1        0.0000
      6 C           9.1760    4.9224    2.3357 C.3     1  UNL1        0.0000
      7 C           8.6826    2.6967    0.1596 C.3     1  UNL1        0.0000
      8 C          10.5522   -1.7194    5.6800 C.3     1  UNL1        0.0000
      9 C           9.2205    0.4355    7.4809 C.3     1  UNL1        0.0000
     10 C           7.4772   -1.6754    5.9790 C.3     1  UNL1        0.0000
     11 C           9.5098    1.1749    3.7725 C.3     1  UNL1        0.0000
     12 C          10.9694    0.9016    3.7409 C.ar    1  UNL1        0.0000
     13 C          11.4678   -0.0067    2.8146 C.ar    1  UNL1        0.0000
     14 C          12.8145   -0.3223    2.8045 C.ar    1  UNL1        0.0000
     15 C          13.6726    0.2695    3.7161 C.ar    1  UNL1        0.0000
     16 C          13.1799    1.1773    4.6385 C.ar    1  UNL1        0.0000
     17 C          11.8321    1.4906    4.6554 C.ar    1  UNL1        0.0000
     18 H          11.7700    2.0742    1.0556 H       1  UNL1        0.0000
     19 H          11.7628    3.7987    0.7521 H       1  UNL1        0.0000
     20 H          12.0545    3.1941    2.3693 H       1  UNL1        0.0000
     21 H           9.8692    5.3074    3.0785 H       1  UNL1        0.0000
     22 H           9.1939    5.5996    1.4880 H       1  UNL1        0.0000
     23 H           8.1724    4.9462    2.7593 H       1  UNL1        0.0000
     24 H           7.6258    2.9296    0.2687 H       1  UNL1        0.0000
     25 H           9.0664    3.2715   -0.6764 H       1  UNL1        0.0000
     26 H           8.7739    1.6417   -0.0935 H       1  UNL1        0.0000
     27 H          10.5443   -2.4851    6.4490 H       1  UNL1        0.0000
     28 H          10.5665   -2.2228    4.7173 H       1  UNL1        0.0000
     29 H          11.4847   -1.1717    5.7704 H       1  UNL1        0.0000
     30 H           9.0770   -0.1906    8.3565 H       1  UNL1        0.0000
     31 H          10.2056    0.8867    7.5607 H       1  UNL1        0.0000
     32 H           8.4857    1.2358    7.5126 H       1  UNL1        0.0000
     33 H           6.5788   -1.0934    5.7887 H       1  UNL1        0.0000
     34 H           7.4991   -2.4962    5.2665 H       1  UNL1        0.0000
     35 H           7.3884   -2.1147    6.9678 H       1  UNL1        0.0000
     36 H          10.7924   -0.4620    2.1021 H       1  UNL1        0.0000
     37 H          13.1970   -1.0309    2.0841 H       1  UNL1        0.0000
     38 H          14.7243    0.0238    3.7070 H       1  UNL1        0.0000
     39 H          13.8488    1.6417    5.3487 H       1  UNL1        0.0000
     40 H          11.4429    2.1952    5.3749 H       1  UNL1        0.0000
@<TRIPOS>BOND
     1    25     7    1
     2    26     7    1
     3     7    24    1
     4     7     1    1
     5    19     5    1
     6    18     5    1
     7     5     1    1
     8     5    20    1
     9    22     6    1
    10     1     6    1
    11     1     3    1
    12    37    14    1
    13    36    13    1
    14     6    23    1
    15     6    21    1
    16    14    13   ar
    17    14    15   ar
    18    13    12   ar
    19     3    11    1
    20    38    15    1
    21    15    16   ar
    22    12    11    1
    23    12    17   ar
    24    11     4    1
    25     4     2    1
    26    16    17   ar
    27    16    39    1
    28    17    40    1
    29    28     8    1
    30    34    10    1
    31     8    29    1
    32     8     2    1
    33     8    27    1
    34    33    10    1
    35     2    10    1
    36     2     9    1
    37    10    35    1
    38     9    32    1
    39     9    31    1
    40     9    30    1
