@<TRIPOS>MOLECULE
1,2
 54 55 0 0 0
SMALL
GASTEIGER

@<TRIPOS>ATOM
      1 N          15.8244    2.4278    4.7200 N.pl3   1  UNL1       -0.2192
      2 N          15.8505    5.2260    5.0351 N.pl3   1  UNL1       -0.2377
      3 C          15.0338    1.1741    6.6787 C.3     1  UNL1       -0.0248
      4 H          14.4194    0.5597    6.0240 H       1  UNL1        0.0290
      5 H          14.4964    1.3684    7.6029 H       1  UNL1        0.0290
      6 H          15.9324    0.6046    6.9181 H       1  UNL1        0.0290
      7 C          15.4444    2.4593    5.9939 C.2     1  UNL1        0.0264
      8 C          15.3343    3.6360    6.7328 C.2     1  UNL1       -0.0383
      9 H          15.0193    3.5309    7.7603 H       1  UNL1        0.0610
     10 C          15.3875    4.9469    6.2425 C.3     1  UNL1        0.0968
     11 C          14.7586    5.9956    7.1309 C.3     1  UNL1       -0.0359
     12 H          15.5055    6.3991    7.8133 H       1  UNL1        0.0255
     13 H          13.9666    5.5516    7.7285 H       1  UNL1        0.0255
     14 H          14.3438    6.8132    6.5461 H       1  UNL1        0.0255
     15 C          15.3110    1.3792    3.9124 C.ar    1  UNL1        0.0601
     16 C          14.0022    1.5255    3.4108 C.ar    1  UNL1       -0.0216
     17 C          13.4639    0.5093    2.6373 C.ar    1  UNL1       -0.0565
     18 H          12.4577    0.6013    2.2591 H       1  UNL1        0.0621
     19 C          14.1933   -0.6278    2.3437 C.ar    1  UNL1       -0.0611
     20 H          13.7560   -1.4127    1.7445 H       1  UNL1        0.0618
     21 C          15.4840   -0.7523    2.8162 C.ar    1  UNL1       -0.0565
     22 H          16.0491   -1.6412    2.5794 H       1  UNL1        0.0621
     23 C          16.0583    0.2375    3.6037 C.ar    1  UNL1       -0.0216
     24 C          13.1888    2.7680    3.7089 C.3     1  UNL1       -0.0197
     25 H          13.8811    3.5526    4.0369 H       1  UNL1        0.0344
     26 C          12.4425    3.2818    2.4744 C.3     1  UNL1       -0.0586
     27 H          13.1105    3.3399    1.6186 H       1  UNL1        0.0235
     28 H          12.0472    4.2759    2.6742 H       1  UNL1        0.0235
     29 H          11.6061    2.6352    2.2200 H       1  UNL1        0.0235
     30 C          12.1870    2.5048    4.8379 C.3     1  UNL1       -0.0586
     31 H          11.5417    1.6658    4.5846 H       1  UNL1        0.0235
     32 H          11.5653    3.3837    4.9952 H       1  UNL1        0.0235
     33 H          12.7009    2.2804    5.7675 H       1  UNL1        0.0235
     34 C          17.4792    0.0729    4.0919 C.3     1  UNL1       -0.0197
     35 H          17.7558    0.9470    4.7057 H       1  UNL1        0.0344
     36 C          18.4185    0.0263    2.8854 C.3     1  UNL1       -0.0586
     37 H          18.1615   -0.8007    2.2265 H       1  UNL1        0.0235
     38 H          19.4463   -0.1059    3.2149 H       1  UNL1        0.0235
     39 H          18.3414    0.9588    2.3274 H       1  UNL1        0.0235
     40 C          17.6419   -1.1867    4.9474 C.3     1  UNL1       -0.0586
     41 H          16.9302   -1.1947    5.7701 H       1  UNL1        0.0235
     42 H          18.6480   -1.2270    5.3587 H       1  UNL1        0.0235
     43 H          17.4805   -2.0829    4.3529 H       1  UNL1        0.0235
     44 C          15.7434    6.5150    4.4910 C.ar    1  UNL1        0.0488
     45 C          15.1410    6.6447    3.2343 C.ar    1  UNL1       -0.0391
     46 H          14.7741    5.7550    2.7391 H       1  UNL1        0.0637
     47 C          15.0015    7.8879    2.6480 C.ar    1  UNL1       -0.0600
     48 H          14.5188    7.9744    1.6855 H       1  UNL1        0.0618
     49 C          15.4731    9.0239    3.2889 C.ar    1  UNL1       -0.0616
     50 H          15.3603    9.9947    2.8300 H       1  UNL1        0.0618
     51 C          16.0999    8.9022    4.5189 C.ar    1  UNL1       -0.0600
     52 H          16.4837    9.7812    5.0172 H       1  UNL1        0.0618
     53 C          16.2321    7.6642    5.1209 C.ar    1  UNL1       -0.0391
     54 H          16.7363    7.5762    6.0722 H       1  UNL1        0.0637
@<TRIPOS>BOND
     1    27    26    1
     2    48    47    1
     3    20    19    1
     4    29    26    1
     5    37    36    1
     6    18    17    1
     7    39    36    1
     8    19    17   ar
     9    19    21   ar
    10    26    28    1
    11    26    24    1
    12    22    21    1
    13    17    16   ar
    14    47    45   ar
    15    47    49   ar
    16    46    45    1
    17    21    23   ar
    18    50    49    1
    19    36    38    1
    20    36    34    1
    21    45    44   ar
    22    49    51   ar
    23    16    24    1
    24    16    15   ar
    25    23    15   ar
    26    23    34    1
    27    24    25    1
    28    24    30    1
    29    15     1    1
    30    34    35    1
    31    34    40    1
    32    43    40    1
    33    44     2    1
    34    44    53   ar
    35    51    52    1
    36    51    53   ar
    37    31    30    1
    38     1     7    1
    39    30    32    1
    40    30    33    1
    41    40    42    1
    42    40    41    1
    43     2    10    1
    44    53    54    1
    45     7     3    1
    46     7     8    2
    47     4     3    1
    48    10     8    1
    49    10    11    1
    50    14    11    1
    51     3     6    1
    52     3     5    1
    53     8     9    1
    54    11    13    1
    55    11    12    1
