@<TRIPOS>MOLECULE
1,2
 54 55 0 0 0
SMALL
GASTEIGER

@<TRIPOS>ATOM
      1 N           4.6854   10.0894    7.9826 N.pl3   1  UNL1       -0.2371
      2 N           4.2979   12.5301    6.4237 N.pl3   1  UNL1       -0.2198
      3 C           4.3326    8.0681    6.5851 C.3     1  UNL1       -0.0359
      4 H           4.2558    7.5414    7.5316 H       1  UNL1        0.0255
      5 H           5.1730    7.6655    6.0200 H       1  UNL1        0.0255
      6 H           3.4364    7.8787    5.9980 H       1  UNL1        0.0255
      7 C           4.5274    9.5586    6.7780 C.3     1  UNL1        0.0968
      8 C           4.4991   10.2928    5.5877 C.2     1  UNL1       -0.0383
      9 H           4.4683    9.7003    4.6844 H       1  UNL1        0.0610
     10 C           4.2793   11.6616    5.4238 C.2     1  UNL1        0.0263
     11 C           3.8772   12.1232    4.0431 C.3     1  UNL1       -0.0248
     12 H           2.8286   12.4215    4.0494 H       1  UNL1        0.0290
     13 H           4.0099   11.3320    3.3111 H       1  UNL1        0.0290
     14 H           4.4604   12.9908    3.7413 H       1  UNL1        0.0290
     15 C           4.2590    9.3163    9.0981 C.ar    1  UNL1        0.0557
     16 C           5.1850    8.6875    9.9496 C.ar    1  UNL1       -0.0219
     17 C           4.7094    7.9218   11.0052 C.ar    1  UNL1       -0.0565
     18 H           5.4002    7.4199   11.6619 H       1  UNL1        0.0621
     19 C           3.3546    7.7713   11.2309 C.ar    1  UNL1       -0.0611
     20 H           3.0069    7.1611   12.0510 H       1  UNL1        0.0618
     21 C           2.4505    8.4099   10.4070 C.ar    1  UNL1       -0.0565
     22 H           1.3939    8.2979   10.5944 H       1  UNL1        0.0621
     23 C           2.8780    9.1881    9.3407 C.ar    1  UNL1       -0.0219
     24 C           6.6733    8.8125    9.6967 C.3     1  UNL1       -0.0197
     25 H           6.8655    9.8537    9.3692 H       1  UNL1        0.0344
     26 C           7.5199    8.5332   10.9386 C.3     1  UNL1       -0.0586
     27 H           7.1849    9.1270   11.7830 H       1  UNL1        0.0235
     28 H           8.5604    8.7797   10.7364 H       1  UNL1        0.0235
     29 H           7.4850    7.4783   11.2030 H       1  UNL1        0.0235
     30 C           7.1216    7.8551    8.5850 C.3     1  UNL1       -0.0586
     31 H           6.7978    6.8406    8.8121 H       1  UNL1        0.0235
     32 H           8.2070    7.8581    8.5068 H       1  UNL1        0.0235
     33 H           6.7143    8.1473    7.6245 H       1  UNL1        0.0235
     34 C           1.8385    9.8892    8.4917 C.3     1  UNL1       -0.0197
     35 H           2.3516   10.5450    7.7795 H       1  UNL1        0.0344
     36 C           0.9170   10.7507    9.3619 C.3     1  UNL1       -0.0586
     37 H           0.2418   10.1294    9.9453 H       1  UNL1        0.0235
     38 H           0.3126   11.4014    8.7327 H       1  UNL1        0.0235
     39 H           1.4963   11.3628   10.0452 H       1  UNL1        0.0235
     40 C           0.9902    8.8862    7.7045 C.3     1  UNL1       -0.0586
     41 H           1.6059    8.2734    7.0542 H       1  UNL1        0.0235
     42 H           0.2630    9.4150    7.0916 H       1  UNL1        0.0235
     43 H           0.4519    8.2269    8.3817 H       1  UNL1        0.0235
     44 C           3.8056   13.8318    6.1549 C.ar    1  UNL1        0.0533
     45 C           2.4661   14.1299    6.4021 C.ar    1  UNL1       -0.0387
     46 H           1.8127   13.3572    6.7823 H       1  UNL1        0.0637
     47 C           1.9805   15.4025    6.1622 C.ar    1  UNL1       -0.0599
     48 H           0.9431   15.6254    6.3646 H       1  UNL1        0.0618
     49 C           2.8154   16.3857    5.6586 C.ar    1  UNL1       -0.0616
     50 H           2.4328   17.3774    5.4698 H       1  UNL1        0.0618
     51 C           4.1425   16.0891    5.3935 C.ar    1  UNL1       -0.0599
     52 H           4.7946   16.8522    4.9942 H       1  UNL1        0.0618
     53 C           4.6391   14.8210    5.6355 C.ar    1  UNL1       -0.0387
     54 H           5.6735   14.5768    5.4403 H       1  UNL1        0.0637
@<TRIPOS>BOND
     1    13    11    1
     2    14    11    1
     3    11    12    1
     4    11    10    1
     5     9     8    1
     6    52    51    1
     7    51    53   ar
     8    51    49   ar
     9    10     8    2
    10    10     2    1
    11    54    53    1
    12    50    49    1
    13     8     7    1
    14    53    44   ar
    15    49    47   ar
    16     6     3    1
    17     5     3    1
    18    44    45   ar
    19    44     2    1
    20    47    48    1
    21    47    45   ar
    22    45    46    1
    23     3     7    1
    24     3     4    1
    25     7     1    1
    26    41    40    1
    27    42    40    1
    28    33    30    1
    29    40    43    1
    30    40    34    1
    31    35    34    1
    32     1    15    1
    33    34    23    1
    34    34    36    1
    35    32    30    1
    36    30    31    1
    37    30    24    1
    38    38    36    1
    39    15    23   ar
    40    15    16   ar
    41    23    21   ar
    42    36    37    1
    43    36    39    1
    44    25    24    1
    45    24    16    1
    46    24    26    1
    47    16    17   ar
    48    21    22    1
    49    21    19   ar
    50    28    26    1
    51    26    29    1
    52    26    27    1
    53    17    19   ar
    54    17    18    1
    55    19    20    1
