@<TRIPOS>MOLECULE
3,4
 46 46 0 0 0
SMALL
GASTEIGER

@<TRIPOS>ATOM
      1 SI         -5.1273    0.8469    5.7521 Si      1  UNL1        0.0000
      2 SI         -1.0392    4.4036    6.5363 Si      1  UNL1        0.0000
      3 N          -3.5962    1.6107    5.5377 N.3     1  UNL1        0.0000
      4 N          -2.0190    3.1485    5.8465 N.3     1  UNL1        0.0000
      5 C          -4.9234   -0.9375    6.4111 C.3     1  UNL1        0.0000
      6 H          -4.1621   -1.4850    5.8642 H       1  UNL1        0.0000
      7 H          -5.8555   -1.4828    6.3165 H       1  UNL1        0.0000
      8 H          -4.6466   -0.9395    7.4604 H       1  UNL1        0.0000
      9 C          -5.7166    0.8535    3.9310 C.3     1  UNL1        0.0000
     10 H          -4.9544    0.4153    3.2838 H       1  UNL1        0.0000
     11 H          -5.8830    1.8838    3.6050 H       1  UNL1        0.0000
     12 H          -6.6392    0.3007    3.7836 H       1  UNL1        0.0000
     13 C          -6.3824    1.8019    6.8331 C.3     1  UNL1        0.0000
     14 H          -6.3668    2.8611    6.5869 H       1  UNL1        0.0000
     15 H          -6.1560    1.7035    7.8907 H       1  UNL1        0.0000
     16 H          -7.3932    1.4378    6.6775 H       1  UNL1        0.0000
     17 C          -2.9053    2.3477    6.3937 C.3     1  UNL1        0.0000
     18 C          -3.1746    2.2857    7.8449 C.ar    1  UNL1        0.0000
     19 C          -2.7953    1.1819    8.5963 C.ar    1  UNL1        0.0000
     20 H          -2.2669    0.3693    8.1190 H       1  UNL1        0.0000
     21 C          -3.0810    1.1354    9.9486 C.ar    1  UNL1        0.0000
     22 H          -2.7737    0.2787   10.5316 H       1  UNL1        0.0000
     23 C          -3.7626    2.1750   10.5687 C.ar    1  UNL1        0.0000
     24 C          -4.1524    3.2679    9.8035 C.ar    1  UNL1        0.0000
     25 H          -4.6908    4.0796   10.2713 H       1  UNL1        0.0000
     26 C          -3.8603    3.3303    8.4542 C.ar    1  UNL1        0.0000
     27 H          -4.1730    4.1745    7.8569 H       1  UNL1        0.0000
     28 C          -4.0241    2.1440   12.0472 C.3     1  UNL1        0.0000
     29 H          -4.9371    2.6976   12.2739 H       1  UNL1        0.0000
     30 H          -4.1570    1.1128   12.3803 H       1  UNL1        0.0000
     31 C          -2.8523    2.7719   12.8050 C.3     1  UNL1        0.0000
     32 H          -3.0389    2.7563   13.8762 H       1  UNL1        0.0000
     33 H          -2.7093    3.8033   12.4915 H       1  UNL1        0.0000
     34 H          -1.9345    2.2243   12.6034 H       1  UNL1        0.0000
     35 C           0.6595    4.2612    5.6619 C.3     1  UNL1        0.0000
     36 H           1.1716    3.3349    5.9090 H       1  UNL1        0.0000
     37 H           1.3028    5.0788    5.9694 H       1  UNL1        0.0000
     38 H           0.5543    4.3163    4.5818 H       1  UNL1        0.0000
     39 C          -1.8798    6.0773    6.1466 C.3     1  UNL1        0.0000
     40 H          -2.8549    6.1640    6.6200 H       1  UNL1        0.0000
     41 H          -2.0277    6.1853    5.0725 H       1  UNL1        0.0000
     42 H          -1.2712    6.9113    6.4817 H       1  UNL1        0.0000
     43 C          -0.7128    4.2574    8.4166 C.3     1  UNL1        0.0000
     44 H          -0.5051    3.2332    8.7087 H       1  UNL1        0.0000
     45 H          -1.5537    4.6006    9.0084 H       1  UNL1        0.0000
     46 H           0.1488    4.8583    8.6860 H       1  UNL1        0.0000
@<TRIPOS>BOND
     1    10     9    1
     2    11     9    1
     3    12     9    1
     4     9     1    1
     5    38    35    1
     6    41    39    1
     7     3     1    1
     8     3    17    1
     9    35    36    1
    10    35    37    1
    11    35     2    1
    12     1     5    1
    13     1    13    1
    14     4    17    1
    15     4     2    1
    16     6     5    1
    17    39    42    1
    18    39     2    1
    19    39    40    1
    20     7     5    1
    21    17    18    1
    22     5     8    1
    23     2    43    1
    24    14    13    1
    25    16    13    1
    26    13    15    1
    27    18    26   ar
    28    18    19   ar
    29    27    26    1
    30    20    19    1
    31    43    46    1
    32    43    44    1
    33    43    45    1
    34    26    24   ar
    35    19    21   ar
    36    24    25    1
    37    24    23   ar
    38    21    22    1
    39    21    23   ar
    40    23    28    1
    41    28    29    1
    42    28    30    1
    43    28    31    1
    44    33    31    1
    45    34    31    1
    46    31    32    1
