@<TRIPOS>MOLECULE
4,5
 44 44 0 0 0
SMALL
GASTEIGER

@<TRIPOS>ATOM
      1 SI          5.8692   -3.1085    7.6690 Si      1  UNL1        0.0000
      2 SI          4.0834   -0.5361    3.1729 Si      1  UNL1        0.0000
      3 O          -0.0152   -1.0240    6.9275 O.3     1  UNL1        0.0000
      4 N           5.7166   -1.9484    6.3869 N.3     1  UNL1        0.0000
      5 N           4.9678   -0.8138    4.6272 N.3     1  UNL1        0.0000
      6 C           7.0089   -2.2734    8.9636 C.3     1  UNL1        0.0000
      7 H           6.5381   -1.4115    9.4295 H       1  UNL1        0.0000
      8 H           7.9451   -1.9509    8.5157 H       1  UNL1        0.0000
      9 H           7.2497   -2.9766    9.7538 H       1  UNL1        0.0000
     10 C           6.6778   -4.6791    6.9364 C.3     1  UNL1        0.0000
     11 H           6.0522   -5.1413    6.1765 H       1  UNL1        0.0000
     12 H           6.8701   -5.4200    7.7059 H       1  UNL1        0.0000
     13 H           7.6304   -4.4315    6.4687 H       1  UNL1        0.0000
     14 C           4.2396   -3.5622    8.5629 C.3     1  UNL1        0.0000
     15 H           3.6336   -4.2540    7.9891 H       1  UNL1        0.0000
     16 H           3.6331   -2.6842    8.7597 H       1  UNL1        0.0000
     17 H           4.4623   -4.0286    9.5162 H       1  UNL1        0.0000
     18 C           4.6897   -1.6261    5.6347 C.3     1  UNL1        0.0000
     19 C           3.3181   -2.1411    5.8344 C.ar    1  UNL1        0.0000
     20 C           3.0219   -3.4482    5.4764 C.ar    1  UNL1        0.0000
     21 H           3.8023   -4.0808    5.0813 H       1  UNL1        0.0000
     22 C           1.7213   -3.9072    5.6112 C.ar    1  UNL1        0.0000
     23 H           1.4773   -4.9206    5.3305 H       1  UNL1        0.0000
     24 C           0.7326   -3.0786    6.1006 C.ar    1  UNL1        0.0000
     25 H          -0.2833   -3.4221    6.2134 H       1  UNL1        0.0000
     26 C           1.0292   -1.7627    6.4610 C.ar    1  UNL1        0.0000
     27 C           2.3297   -1.2941    6.3204 C.ar    1  UNL1        0.0000
     28 H           2.6002   -0.2840    6.5855 H       1  UNL1        0.0000
     29 C           0.2193    0.3114    7.3039 C.3     1  UNL1        0.0000
     30 H          -0.7440    0.6962    7.6351 H       1  UNL1        0.0000
     31 H           0.5776    0.9111    6.4609 H       1  UNL1        0.0000
     32 H           0.9373    0.3771    8.1277 H       1  UNL1        0.0000
     33 C           2.7420    0.8080    3.4152 C.3     1  UNL1        0.0000
     34 H           1.8805    0.4084    3.9407 H       1  UNL1        0.0000
     35 H           2.3979    1.1743    2.4548 H       1  UNL1        0.0000
     36 H           3.1157    1.6574    3.9788 H       1  UNL1        0.0000
     37 C           5.5202    0.0997    2.0811 C.3     1  UNL1        0.0000
     38 H           6.2332   -0.7117    1.9118 H       1  UNL1        0.0000
     39 H           6.0506    0.9108    2.5829 H       1  UNL1        0.0000
     40 H           5.1882    0.4640    1.1142 H       1  UNL1        0.0000
     41 C           3.3032   -2.0921    2.3827 C.3     1  UNL1        0.0000
     42 H           2.3970   -2.3914    2.9013 H       1  UNL1        0.0000
     43 H           3.9985   -2.9275    2.4223 H       1  UNL1        0.0000
     44 H           3.0461   -1.9200    1.3422 H       1  UNL1        0.0000
@<TRIPOS>BOND
     1    40    37    1
     2    44    41    1
     3    38    37    1
     4    37    39    1
     5    37     2    1
     6    41    43    1
     7    41    42    1
     8    41     2    1
     9    35    33    1
    10     2    33    1
    11     2     5    1
    12    33    34    1
    13    33    36    1
    14     5    18    1
    15    21    20    1
    16    23    22    1
    17    20    22   ar
    18    20    19   ar
    19    22    24   ar
    20    18    19    1
    21    18     4    1
    22    19    27   ar
    23    24    25    1
    24    24    26   ar
    25    11    10    1
    26    27    26   ar
    27    27    28    1
    28     4     1    1
    29    31    29    1
    30    26     3    1
    31    13    10    1
    32     3    29    1
    33    10     1    1
    34    10    12    1
    35    29    30    1
    36    29    32    1
    37     1    14    1
    38     1     6    1
    39    15    14    1
    40     8     6    1
    41    14    16    1
    42    14    17    1
    43     6     7    1
    44     6     9    1
