@<TRIPOS>MOLECULE
3,4
 46 46 0 0 0
SMALL
GASTEIGER

@<TRIPOS>ATOM
      1 SI         -1.1614    0.8466    2.2836 Si      1  UNL1        0.0000
      2 SI         -5.2493    4.4036    1.4996 Si      1  UNL1        0.0000
      3 N          -2.6923    1.6107    2.4981 N.3     1  UNL1        0.0000
      4 N          -4.2694    3.1485    2.1894 N.3     1  UNL1        0.0000
      5 C          -1.3655   -0.9379    1.6252 C.3     1  UNL1        0.0000
      6 H          -2.1268   -1.4852    2.1724 H       1  UNL1        0.0000
      7 H          -0.4335   -1.4834    1.7198 H       1  UNL1        0.0000
      8 H          -1.6426   -0.9402    0.5760 H       1  UNL1        0.0000
      9 C          -0.5718    0.8538    4.1046 C.3     1  UNL1        0.0000
     10 H          -1.3339    0.4156    4.7519 H       1  UNL1        0.0000
     11 H          -0.4054    1.8842    4.4304 H       1  UNL1        0.0000
     12 H           0.3509    0.3011    4.2520 H       1  UNL1        0.0000
     13 C           0.0935    1.8014    1.2020 C.3     1  UNL1        0.0000
     14 H           0.0784    2.8605    1.4484 H       1  UNL1        0.0000
     15 H          -0.1335    1.7031    0.1446 H       1  UNL1        0.0000
     16 H           1.1042    1.4369    1.3570 H       1  UNL1        0.0000
     17 C          -3.3832    2.3478    1.6421 C.3     1  UNL1        0.0000
     18 C          -3.1139    2.2858    0.1910 C.ar    1  UNL1        0.0000
     19 C          -3.4929    1.1818   -0.5604 C.ar    1  UNL1        0.0000
     20 H          -4.0210    0.3691   -0.0832 H       1  UNL1        0.0000
     21 C          -3.2072    1.1355   -1.9127 C.ar    1  UNL1        0.0000
     22 H          -3.5143    0.2786   -2.4958 H       1  UNL1        0.0000
     23 C          -2.5261    2.1753   -2.5329 C.ar    1  UNL1        0.0000
     24 C          -2.1367    3.2683   -1.7677 C.ar    1  UNL1        0.0000
     25 H          -1.5985    4.0802   -2.2356 H       1  UNL1        0.0000
     26 C          -2.4286    3.3306   -0.4184 C.ar    1  UNL1        0.0000
     27 H          -2.1161    4.1749    0.1789 H       1  UNL1        0.0000
     28 C          -2.2646    2.1444   -4.0114 C.3     1  UNL1        0.0000
     29 H          -1.3518    2.6983   -4.2382 H       1  UNL1        0.0000
     30 H          -2.1314    1.1132   -4.3445 H       1  UNL1        0.0000
     31 C          -3.4367    2.7720   -4.7692 C.3     1  UNL1        0.0000
     32 H          -3.2500    2.7565   -5.8404 H       1  UNL1        0.0000
     33 H          -3.5801    3.8033   -4.4556 H       1  UNL1        0.0000
     34 H          -4.3542    2.2240   -4.5676 H       1  UNL1        0.0000
     35 C          -6.9480    4.2611    2.3742 C.3     1  UNL1        0.0000
     36 H          -7.4600    3.3348    2.1271 H       1  UNL1        0.0000
     37 H          -7.5913    5.0786    2.0666 H       1  UNL1        0.0000
     38 H          -6.8427    4.3163    3.4542 H       1  UNL1        0.0000
     39 C          -4.4086    6.0773    1.8892 C.3     1  UNL1        0.0000
     40 H          -3.4335    6.1639    1.4160 H       1  UNL1        0.0000
     41 H          -4.2610    6.1855    2.9634 H       1  UNL1        0.0000
     42 H          -5.0172    6.9113    1.5539 H       1  UNL1        0.0000
     43 C          -5.5759    4.2574   -0.3806 C.3     1  UNL1        0.0000
     44 H          -5.7836    3.2331   -0.6728 H       1  UNL1        0.0000
     45 H          -4.7351    4.6006   -0.9725 H       1  UNL1        0.0000
     46 H          -6.4375    4.8582   -0.6500 H       1  UNL1        0.0000
@<TRIPOS>BOND
     1    32    31    1
     2    31    34    1
     3    31    33    1
     4    31    28    1
     5    30    28    1
     6    29    28    1
     7    28    23    1
     8    23    21   ar
     9    23    24   ar
    10    22    21    1
    11    25    24    1
    12    21    19   ar
    13    24    26   ar
    14    45    43    1
    15    44    43    1
    16    46    43    1
    17    19    20    1
    18    19    18   ar
    19    26    27    1
    20    26    18   ar
    21    43     2    1
    22    15    13    1
    23    18    17    1
    24     8     5    1
    25    13    16    1
    26    13    14    1
    27    13     1    1
    28    40    39    1
    29     2    39    1
    30     2     4    1
    31     2    35    1
    32    42    39    1
    33     5     7    1
    34     5     6    1
    35     5     1    1
    36    17     4    1
    37    17     3    1
    38    39    41    1
    39    37    35    1
    40    36    35    1
    41     1     3    1
    42     1     9    1
    43    35    38    1
    44     9    12    1
    45     9    11    1
    46     9    10    1
