@<TRIPOS>MOLECULE
4,5
 44 44 0 0 0
SMALL
GASTEIGER

@<TRIPOS>ATOM
      1 SI          9.2252   -2.1675    2.0601 Si      1  UNL1        0.0000
      2 SI          8.0933    1.6176    5.8622 Si      1  UNL1        0.0000
      3 O          11.3140    3.6283    1.8416 O.3     1  UNL1        0.0000
      4 N           8.3506   -1.0918    3.1040 N.3     1  UNL1        0.0000
      5 N           7.8491    0.5023    4.5704 N.3     1  UNL1        0.0000
      6 C           7.9559   -2.7285    0.7392 C.3     1  UNL1        0.0000
      7 H           7.0656   -3.1481    1.2002 H       1  UNL1        0.0000
      8 H           8.3917   -3.4975    0.1103 H       1  UNL1        0.0000
      9 H           7.6520   -1.9120    0.0894 H       1  UNL1        0.0000
     10 C          10.7029   -1.3851    1.1305 C.3     1  UNL1        0.0000
     11 H          11.5716   -1.2646    1.7678 H       1  UNL1        0.0000
     12 H          10.4515   -0.4074    0.7325 H       1  UNL1        0.0000
     13 H          10.9881   -2.0175    0.2971 H       1  UNL1        0.0000
     14 C           9.8240   -3.6429    3.1202 C.3     1  UNL1        0.0000
     15 H          10.5159   -3.3300    3.8986 H       1  UNL1        0.0000
     16 H          10.3232   -4.3896    2.5108 H       1  UNL1        0.0000
     17 H           8.9785   -4.1257    3.6096 H       1  UNL1        0.0000
     18 C           8.7194    0.0192    3.6996 C.3     1  UNL1        0.0000
     19 C          10.0256    0.6780    3.4816 C.ar    1  UNL1        0.0000
     20 C          11.1657    0.1272    4.0612 C.ar    1  UNL1        0.0000
     21 H          11.0809   -0.7781    4.6430 H       1  UNL1        0.0000
     22 C          12.3795    0.7636    3.8954 C.ar    1  UNL1        0.0000
     23 H          13.2697    0.3477    4.3433 H       1  UNL1        0.0000
     24 C          12.4787    1.9336    3.1577 C.ar    1  UNL1        0.0000
     25 H          13.4429    2.4028    3.0430 H       1  UNL1        0.0000
     26 C          11.3404    2.4844    2.5803 C.ar    1  UNL1        0.0000
     27 C          10.1095    1.8498    2.7535 C.ar    1  UNL1        0.0000
     28 H           9.2318    2.2842    2.3012 H       1  UNL1        0.0000
     29 C          12.5242    4.3095    1.6118 C.3     1  UNL1        0.0000
     30 H          12.2649    5.1699    0.9971 H       1  UNL1        0.0000
     31 H          13.2416    3.6831    1.0725 H       1  UNL1        0.0000
     32 H          12.9743    4.6566    2.5473 H       1  UNL1        0.0000
     33 C           6.6040    1.1140    6.9550 C.3     1  UNL1        0.0000
     34 H           6.7533    0.0958    7.3247 H       1  UNL1        0.0000
     35 H           5.6837    1.1250    6.3685 H       1  UNL1        0.0000
     36 H           6.4652    1.7673    7.8107 H       1  UNL1        0.0000
     37 C           7.9442    3.4277    5.2636 C.3     1  UNL1        0.0000
     38 H           8.8012    3.7136    4.6624 H       1  UNL1        0.0000
     39 H           7.8950    4.1036    6.1099 H       1  UNL1        0.0000
     40 H           7.0526    3.5822    4.6640 H       1  UNL1        0.0000
     41 C           9.7147    1.3845    6.8481 C.3     1  UNL1        0.0000
     42 H           9.8996    0.3287    7.0320 H       1  UNL1        0.0000
     43 H           9.6687    1.8885    7.8086 H       1  UNL1        0.0000
     44 H          10.5694    1.7809    6.3081 H       1  UNL1        0.0000
@<TRIPOS>BOND
     1     9     6    1
     2     8     6    1
     3    13    10    1
     4    12    10    1
     5     6     7    1
     6     6     1    1
     7    30    29    1
     8    31    29    1
     9    10    11    1
    10    10     1    1
    11    29     3    1
    12    29    32    1
    13     3    26    1
    14     1     4    1
    15     1    14    1
    16    28    27    1
    17    16    14    1
    18    26    27   ar
    19    26    24   ar
    20    27    19   ar
    21    25    24    1
    22     4    18    1
    23    14    17    1
    24    14    15    1
    25    24    22   ar
    26    19    18    1
    27    19    20   ar
    28    18     5    1
    29    22    20   ar
    30    22    23    1
    31    20    21    1
    32     5     2    1
    33    38    37    1
    34    40    37    1
    35    37     2    1
    36    37    39    1
    37     2    41    1
    38     2    33    1
    39    44    41    1
    40    35    33    1
    41    41    42    1
    42    41    43    1
    43    33    34    1
    44    33    36    1
