@<TRIPOS>MOLECULE
3,4
 52 52 0 0 0
SMALL
GASTEIGER

@<TRIPOS>ATOM
      1 SI         10.6106    4.9582   11.6351 Si      1  UNL1        0.0000
      2 SI          8.2399    2.4867    7.3623 Si      1  UNL1        0.0000
      3 N           9.8865    4.7744   10.0815 N.3     1  UNL1        0.0000
      4 N           8.8405    3.7158    8.4290 N.3     1  UNL1        0.0000
      5 C           9.4611    6.3164   12.3415 C.3     1  UNL1        0.0000
      6 H           9.4047    7.1605   11.6513 H       1  UNL1        0.0000
      7 H           9.7935    6.6930   13.3040 H       1  UNL1        0.0000
      8 H           8.4519    5.9137   12.4660 H       1  UNL1        0.0000
      9 C          10.5524    3.4245   12.7752 C.3     1  UNL1        0.0000
     10 H          11.2810    2.6762   12.4783 H       1  UNL1        0.0000
     11 H           9.5682    2.9636   12.7403 H       1  UNL1        0.0000
     12 H          10.7584    3.6944   13.8064 H       1  UNL1        0.0000
     13 C          12.4107    5.5861   11.4754 C.3     1  UNL1        0.0000
     14 H          12.4876    6.4148   10.7783 H       1  UNL1        0.0000
     15 H          13.0726    4.7983   11.1307 H       1  UNL1        0.0000
     16 H          12.7785    5.9264   12.4367 H       1  UNL1        0.0000
     17 C           9.8042    3.6933    9.3209 C.3     1  UNL1        0.0000
     18 C          10.7165    2.5505    9.5297 C.ar    1  UNL1        0.0000
     19 C          12.0584    2.6382    9.1849 C.ar    1  UNL1        0.0000
     20 H          12.4292    3.5373    8.7145 H       1  UNL1        0.0000
     21 C          12.9064    1.5745    9.4325 C.ar    1  UNL1        0.0000
     22 H          13.9480    1.6440    9.1523 H       1  UNL1        0.0000
     23 C          12.4375    0.4155   10.0383 C.ar    1  UNL1        0.0000
     24 C          11.0946    0.3430   10.3900 C.ar    1  UNL1        0.0000
     25 H          10.7180   -0.5502   10.8673 H       1  UNL1        0.0000
     26 C          10.2357    1.3949   10.1346 C.ar    1  UNL1        0.0000
     27 H           9.1945    1.3429   10.4181 H       1  UNL1        0.0000
     28 C           6.6270    1.8032    8.1325 C.3     1  UNL1        0.0000
     29 H           6.8071    1.3154    9.0876 H       1  UNL1        0.0000
     30 H           6.1504    1.0830    7.4750 H       1  UNL1        0.0000
     31 H           5.9183    2.6126    8.3068 H       1  UNL1        0.0000
     32 C           7.8961    3.3763    5.7008 C.3     1  UNL1        0.0000
     33 H           8.8065    3.7569    5.2450 H       1  UNL1        0.0000
     34 H           7.2069    4.2059    5.8316 H       1  UNL1        0.0000
     35 H           7.4457    2.6848    4.9968 H       1  UNL1        0.0000
     36 C           9.4458    1.0493    6.9866 C.3     1  UNL1        0.0000
     37 H          10.4566    1.4074    6.8204 H       1  UNL1        0.0000
     38 H           9.1280    0.5309    6.0888 H       1  UNL1        0.0000
     39 H           9.4859    0.3236    7.7909 H       1  UNL1        0.0000
     40 C          13.3752   -0.7099   10.3634 C.3     1  UNL1        0.0000
     41 H          12.8412   -1.6616   10.3323 H       1  UNL1        0.0000
     42 H          14.1831   -0.7473    9.6298 H       1  UNL1        0.0000
     43 C          13.9749   -0.5162   11.7616 C.3     1  UNL1        0.0000
     44 H          13.1659   -0.4728   12.4942 H       1  UNL1        0.0000
     45 H          14.5016    0.4405   11.7952 H       1  UNL1        0.0000
     46 C          14.9378   -1.6409   12.1319 C.3     1  UNL1        0.0000
     47 H          14.4082   -2.5957   12.0972 H       1  UNL1        0.0000
     48 H          15.7441   -1.6835   11.3959 H       1  UNL1        0.0000
     49 C          15.5306   -1.4411   13.5212 C.3     1  UNL1        0.0000
     50 H          16.2129   -2.2515   13.7668 H       1  UNL1        0.0000
     51 H          14.7434   -1.4155   14.2714 H       1  UNL1        0.0000
     52 H          16.0796   -0.5032   13.5705 H       1  UNL1        0.0000
@<TRIPOS>BOND
     1    35    32    1
     2    33    32    1
     3    32    34    1
     4    32     2    1
     5    38    36    1
     6    37    36    1
     7    36     2    1
     8    36    39    1
     9     2    28    1
    10     2     4    1
    11    30    28    1
    12    28    31    1
    13    28    29    1
    14     4    17    1
    15    20    19    1
    16    22    21    1
    17    19    21   ar
    18    19    18   ar
    19    17    18    1
    20    17     3    1
    21    21    23   ar
    22    18    26   ar
    23    42    40    1
    24    23    40    1
    25    23    24   ar
    26     3     1    1
    27    26    24   ar
    28    26    27    1
    29    41    40    1
    30    40    43    1
    31    24    25    1
    32    14    13    1
    33    15    13    1
    34    48    46    1
    35    13     1    1
    36    13    16    1
    37     1     5    1
    38     1     9    1
    39     6     5    1
    40    43    45    1
    41    43    46    1
    42    43    44    1
    43    47    46    1
    44    46    49    1
    45     5     8    1
    46     5     7    1
    47    10     9    1
    48    11     9    1
    49     9    12    1
    50    49    52    1
    51    49    50    1
    52    49    51    1
