@<TRIPOS>MOLECULE
3,4
 52 52 0 0 0
SMALL
GASTEIGER

@<TRIPOS>ATOM
      1 SI          5.1611    6.2187   11.7323 Si      1  UNL1        0.0000
      2 SI          8.6546    8.0331    7.9263 Si      1  UNL1        0.0000
      3 N           6.6173    6.4942   10.8308 N.3     1  UNL1        0.0000
      4 N           8.1049    7.2868    9.3799 N.3     1  UNL1        0.0000
      5 C           5.7322    5.5056   13.4161 C.3     1  UNL1        0.0000
      6 H           6.3155    6.2228   13.9878 H       1  UNL1        0.0000
      7 H           6.3304    4.6086   13.2816 H       1  UNL1        0.0000
      8 H           4.8698    5.2366   14.0165 H       1  UNL1        0.0000
      9 C           4.1163    4.9470   10.7564 C.3     1  UNL1        0.0000
     10 H           3.8053    5.3329    9.7883 H       1  UNL1        0.0000
     11 H           3.2232    4.6663   11.3059 H       1  UNL1        0.0000
     12 H           4.6937    4.0403   10.5771 H       1  UNL1        0.0000
     13 C           4.1022    7.7681   12.1102 C.3     1  UNL1        0.0000
     14 H           4.7174    8.6218   12.3755 H       1  UNL1        0.0000
     15 H           3.4413    7.5652   12.9457 H       1  UNL1        0.0000
     16 H           3.4871    8.0574   11.2655 H       1  UNL1        0.0000
     17 C           6.9764    7.4829   10.0442 C.3     1  UNL1        0.0000
     18 C           6.1829    8.7142    9.8551 C.ar    1  UNL1        0.0000
     19 C           6.6246    9.9311   10.3576 C.ar    1  UNL1        0.0000
     20 H           7.5479    9.9719   10.9172 H       1  UNL1        0.0000
     21 C           5.8755   11.0748   10.1546 C.ar    1  UNL1        0.0000
     22 H           6.2186   12.0174   10.5573 H       1  UNL1        0.0000
     23 C           4.6861   11.0307    9.4366 C.ar    1  UNL1        0.0000
     24 C           4.2665    9.8119    8.9174 C.ar    1  UNL1        0.0000
     25 H           3.3504    9.7637    8.3467 H       1  UNL1        0.0000
     26 C           5.0013    8.6597    9.1258 C.ar    1  UNL1        0.0000
     27 H           4.6785    7.7138    8.7157 H       1  UNL1        0.0000
     28 C           7.2947    8.5274    6.6769 C.3     1  UNL1        0.0000
     29 H           6.7649    9.4210    6.9931 H       1  UNL1        0.0000
     30 H           6.5657    7.7272    6.5741 H       1  UNL1        0.0000
     31 H           7.7157    8.7238    5.6958 H       1  UNL1        0.0000
     32 C           9.6752    6.5802    7.2108 C.3     1  UNL1        0.0000
     33 H          10.3881    6.2167    7.9537 H       1  UNL1        0.0000
     34 H          10.2311    6.8530    6.3191 H       1  UNL1        0.0000
     35 H           9.0058    5.7547    6.9527 H       1  UNL1        0.0000
     36 C           9.7684    9.5389    8.3159 C.3     1  UNL1        0.0000
     37 H           9.1817   10.3818    8.6663 H       1  UNL1        0.0000
     38 H          10.2990    9.8562    7.4255 H       1  UNL1        0.0000
     39 H          10.5068    9.3071    9.0773 H       1  UNL1        0.0000
     40 C           3.8582   12.2718    9.2697 C.3     1  UNL1        0.0000
     41 H           4.5065   13.1125    9.0114 H       1  UNL1        0.0000
     42 H           3.1405   12.1327    8.4591 H       1  UNL1        0.0000
     43 C           3.1008   12.6113   10.5607 C.3     1  UNL1        0.0000
     44 H           3.8181   12.7423   11.3738 H       1  UNL1        0.0000
     45 H           2.5743   13.5588   10.4234 H       1  UNL1        0.0000
     46 C           2.0974   11.5284   10.9483 C.3     1  UNL1        0.0000
     47 H           2.6252   10.5844   11.0966 H       1  UNL1        0.0000
     48 H           1.3844   11.3882   10.1326 H       1  UNL1        0.0000
     49 C           1.3436   11.8904   12.2219 C.3     1  UNL1        0.0000
     50 H           0.6332   11.1090   12.4803 H       1  UNL1        0.0000
     51 H           0.7972   12.8225   12.0927 H       1  UNL1        0.0000
     52 H           2.0357   12.0119   13.0523 H       1  UNL1        0.0000
@<TRIPOS>BOND
     1    31    28    1
     2    34    32    1
     3    30    28    1
     4    28    29    1
     5    28     2    1
     6    35    32    1
     7    32     2    1
     8    32    33    1
     9    38    36    1
    10     2    36    1
    11     2     4    1
    12    36    37    1
    13    36    39    1
    14    25    24    1
    15    42    40    1
    16    27    26    1
    17    24    26   ar
    18    24    23   ar
    19    41    40    1
    20    26    18   ar
    21    40    23    1
    22    40    43    1
    23     4    17    1
    24    23    21   ar
    25    10     9    1
    26    18    17    1
    27    18    19   ar
    28    17     3    1
    29    48    46    1
    30    21    19   ar
    31    21    22    1
    32    19    20    1
    33    45    43    1
    34    43    46    1
    35    43    44    1
    36    12     9    1
    37     9    11    1
    38     9     1    1
    39     3     1    1
    40    46    47    1
    41    46    49    1
    42    16    13    1
    43     1    13    1
    44     1     5    1
    45    51    49    1
    46    13    14    1
    47    13    15    1
    48    49    50    1
    49    49    52    1
    50     7     5    1
    51     5     6    1
    52     5     8    1
