@<TRIPOS>MOLECULE
4,5
 51 52 0 0 0
SMALL
GASTEIGER

@<TRIPOS>ATOM
      1 P           8.0380    1.3704    4.9652 P.3     1  UNL1        0.0000
      2 SI          7.0097    3.9296    4.1122 Si      1  UNL1        0.0000
      3 SI          9.8919   -0.8883    5.4739 Si      1  UNL1        0.0000
      4 N           8.2825    2.9353    4.7207 N.3     1  UNL1        0.0000
      5 N           9.4903    0.7828    5.3186 N.3     1  UNL1        0.0000
      6 C           7.4693    5.7291    4.5436 C.3     1  UNL1        0.0000
      7 H           7.1611    5.9909    5.5512 H       1  UNL1        0.0000
      8 H           6.9896    6.4234    3.8630 H       1  UNL1        0.0000
      9 H           8.5418    5.8700    4.4762 H       1  UNL1        0.0000
     10 C           5.2863    3.5844    4.8860 C.3     1  UNL1        0.0000
     11 H           4.5209    4.1508    4.3643 H       1  UNL1        0.0000
     12 H           5.2372    3.8597    5.9350 H       1  UNL1        0.0000
     13 H           5.0242    2.5328    4.8124 H       1  UNL1        0.0000
     14 C           6.7370    3.7069    2.2209 C.3     1  UNL1        0.0000
     15 H           6.4030    4.6321    1.7617 H       1  UNL1        0.0000
     16 H           5.9804    2.9527    2.0203 H       1  UNL1        0.0000
     17 H           7.6482    3.3942    1.7183 H       1  UNL1        0.0000
     18 C           7.3363    0.6354    3.4468 C.ar    1  UNL1        0.0000
     19 C           6.0333    0.2007    3.2518 C.ar    1  UNL1        0.0000
     20 H           5.3263    0.2029    4.0699 H       1  UNL1        0.0000
     21 C           5.6327   -0.2348    1.9987 C.ar    1  UNL1        0.0000
     22 H           4.6190   -0.5783    1.8492 H       1  UNL1        0.0000
     23 C           6.5230   -0.2239    0.9387 C.ar    1  UNL1        0.0000
     24 H           6.2038   -0.5637   -0.0356 H       1  UNL1        0.0000
     25 C           7.8194    0.2339    1.1257 C.ar    1  UNL1        0.0000
     26 H           8.5065    0.2554    0.2916 H       1  UNL1        0.0000
     27 C           8.2252    0.6665    2.3748 C.ar    1  UNL1        0.0000
     28 H           9.2335    1.0501    2.5670 H       1  UNL1        0.0000
     29 C           6.9001    0.9912    6.3354 C.ar    1  UNL1        0.0000
     30 C           6.7505    1.9526    7.3254 C.ar    1  UNL1        0.0000
     31 H           7.2313    2.9117    7.1869 H       1  UNL1        0.0000
     32 C           5.9893    1.6845    8.4486 C.ar    1  UNL1        0.0000
     33 H           5.8645    2.4368    9.2147 H       1  UNL1        0.0000
     34 C           5.3810    0.4476    8.5908 C.ar    1  UNL1        0.0000
     35 H           4.7821    0.2367    9.4647 H       1  UNL1        0.0000
     36 C           5.5480   -0.5235    7.6161 C.ar    1  UNL1        0.0000
     37 H           5.0841   -1.4921    7.7353 H       1  UNL1        0.0000
     38 C           6.3130   -0.2577    6.4943 C.ar    1  UNL1        0.0000
     39 H           6.4663   -1.0196    5.7434 H       1  UNL1        0.0000
     40 C           9.2167   -1.6854    7.0937 C.3     1  UNL1        0.0000
     41 H          10.0191   -2.1596    7.6490 H       1  UNL1        0.0000
     42 H           8.4794   -2.4519    6.8779 H       1  UNL1        0.0000
     43 H           8.7471   -0.9596    7.7507 H       1  UNL1        0.0000
     44 C           9.2689   -2.0237    4.0528 C.3     1  UNL1        0.0000
     45 H           9.6234   -3.0406    4.1928 H       1  UNL1        0.0000
     46 H           9.6167   -1.6792    3.0842 H       1  UNL1        0.0000
     47 H           8.1832   -2.0586    4.0122 H       1  UNL1        0.0000
     48 C          11.8007   -0.8390    5.4990 C.3     1  UNL1        0.0000
     49 H          12.2409   -1.6532    4.9331 H       1  UNL1        0.0000
     50 H          12.1943   -0.8950    6.5074 H       1  UNL1        0.0000
     51 H          12.1065    0.1164    5.0624 H       1  UNL1        0.0000
@<TRIPOS>BOND
     1    24    23    1
     2    26    25    1
     3    23    25   ar
     4    23    21   ar
     5    25    27   ar
     6    17    14    1
     7    15    14    1
     8    22    21    1
     9    21    19   ar
    10    16    14    1
    11    14     2    1
    12    27    28    1
    13    27    18   ar
    14    46    44    1
    15    19    18   ar
    16    19    20    1
    17    18     1    1
    18     8     6    1
    19    47    44    1
    20    44    45    1
    21    44     3    1
    22     2     6    1
    23     2     4    1
    24     2    10    1
    25    11    10    1
    26     9     6    1
    27     6     7    1
    28     4     1    1
    29    13    10    1
    30    10    12    1
    31    49    48    1
    32     1     5    1
    33     1    29    1
    34    51    48    1
    35     5     3    1
    36     3    48    1
    37     3    40    1
    38    48    50    1
    39    39    38    1
    40    29    38   ar
    41    29    30   ar
    42    38    36   ar
    43    42    40    1
    44    40    41    1
    45    40    43    1
    46    31    30    1
    47    30    32   ar
    48    36    37    1
    49    36    34   ar
    50    32    34   ar
    51    32    33    1
    52    34    35    1
