@<TRIPOS>MOLECULE
4,5
 51 52 0 0 0
SMALL
GASTEIGER

@<TRIPOS>ATOM
      1 P          11.4244    4.4785    5.9652 P.3     1  UNL1        0.0000
      2 SI         11.2270    5.6690    3.1874 Si      1  UNL1        0.0000
      3 SI         12.4288    2.3072    7.6472 Si      1  UNL1        0.0000
      4 N          10.8933    4.5559    4.4545 N.3     1  UNL1        0.0000
      5 N          11.6094    2.9074    6.2490 N.3     1  UNL1        0.0000
      6 C          10.8931    7.5142    3.6076 C.3     1  UNL1        0.0000
      7 H          11.0548    8.1244    2.7250 H       1  UNL1        0.0000
      8 H          11.5751    7.8721    4.3748 H       1  UNL1        0.0000
      9 H           9.8774    7.6952    3.9443 H       1  UNL1        0.0000
     10 C          13.0462    5.6939    2.5595 C.3     1  UNL1        0.0000
     11 H          13.6921    6.2540    3.2303 H       1  UNL1        0.0000
     12 H          13.1054    6.1653    1.5829 H       1  UNL1        0.0000
     13 H          13.4554    4.6930    2.4686 H       1  UNL1        0.0000
     14 C          10.0522    5.0590    1.8121 C.3     1  UNL1        0.0000
     15 H          10.4609    5.2130    0.8195 H       1  UNL1        0.0000
     16 H           9.0908    5.5592    1.8537 H       1  UNL1        0.0000
     17 H           9.8917    3.9886    1.9685 H       1  UNL1        0.0000
     18 C          10.1734    5.2192    7.0750 C.ar    1  UNL1        0.0000
     19 C           9.8484    6.5689    6.9987 C.ar    1  UNL1        0.0000
     20 H          10.3844    7.2062    6.3111 H       1  UNL1        0.0000
     21 C           8.8354    7.0860    7.7859 C.ar    1  UNL1        0.0000
     22 H           8.5887    8.1365    7.7266 H       1  UNL1        0.0000
     23 C           8.1319    6.2572    8.6459 C.ar    1  UNL1        0.0000
     24 H           7.3422    6.6633    9.2614 H       1  UNL1        0.0000
     25 C           8.4353    4.9071    8.7071 C.ar    1  UNL1        0.0000
     26 H           7.8833    4.2588    9.3730 H       1  UNL1        0.0000
     27 C           9.4474    4.3884    7.9178 C.ar    1  UNL1        0.0000
     28 H           9.6906    3.3342    7.9525 H       1  UNL1        0.0000
     29 C          12.9919    5.3740    6.2056 C.ar    1  UNL1        0.0000
     30 C          14.0566    4.7738    5.5425 C.ar    1  UNL1        0.0000
     31 H          13.8515    3.8669    4.9830 H       1  UNL1        0.0000
     32 C          15.3239    5.3182    5.6178 C.ar    1  UNL1        0.0000
     33 H          16.1507    4.8494    5.1042 H       1  UNL1        0.0000
     34 C          15.5311    6.4727    6.3586 C.ar    1  UNL1        0.0000
     35 H          16.5190    6.9049    6.4214 H       1  UNL1        0.0000
     36 C          14.4740    7.0684    7.0259 C.ar    1  UNL1        0.0000
     37 H          14.6409    7.9619    7.6103 H       1  UNL1        0.0000
     38 C          13.2031    6.5206    6.9550 C.ar    1  UNL1        0.0000
     39 H          12.3884    6.9775    7.4979 H       1  UNL1        0.0000
     40 C          12.8544    3.6652    8.9368 C.3     1  UNL1        0.0000
     41 H          13.0717    3.2259    9.9058 H       1  UNL1        0.0000
     42 H          12.0331    4.3650    9.0694 H       1  UNL1        0.0000
     43 H          13.7265    4.2386    8.6378 H       1  UNL1        0.0000
     44 C          14.0968    1.5224    7.1132 C.3     1  UNL1        0.0000
     45 H          14.3969    0.7422    7.8039 H       1  UNL1        0.0000
     46 H          14.8912    2.2626    7.0929 H       1  UNL1        0.0000
     47 H          14.0278    1.0844    6.1225 H       1  UNL1        0.0000
     48 C          11.2893    1.0515    8.5410 C.3     1  UNL1        0.0000
     49 H          10.8098    1.4886    9.4129 H       1  UNL1        0.0000
     50 H          11.8517    0.1902    8.8843 H       1  UNL1        0.0000
     51 H          10.5141    0.6959    7.8689 H       1  UNL1        0.0000
@<TRIPOS>BOND
     1    15    14    1
     2    12    10    1
     3    14    16    1
     4    14    17    1
     5    14     2    1
     6    13    10    1
     7    10     2    1
     8    10    11    1
     9     7     6    1
    10     2     6    1
    11     2     4    1
    12     6     9    1
    13     6     8    1
    14     4     1    1
    15    31    30    1
    16    33    32    1
    17    30    32   ar
    18    30    29   ar
    19    32    34   ar
    20     1    29    1
    21     1     5    1
    22     1    18    1
    23    47    44    1
    24    29    38   ar
    25     5     3    1
    26    20    19    1
    27    34    35    1
    28    34    36   ar
    29    38    36   ar
    30    38    39    1
    31    19    18   ar
    32    19    21   ar
    33    36    37    1
    34    18    27   ar
    35    46    44    1
    36    44     3    1
    37    44    45    1
    38     3    48    1
    39     3    40    1
    40    22    21    1
    41    21    23   ar
    42    51    48    1
    43    27    28    1
    44    27    25   ar
    45    48    50    1
    46    48    49    1
    47    43    40    1
    48    23    25   ar
    49    23    24    1
    50    25    26    1
    51    40    42    1
    52    40    41    1
