@<TRIPOS>MOLECULE
3,4
 40 40 0 0 0
SMALL
GASTEIGER

@<TRIPOS>ATOM
      1 SI          2.2746   -0.3601   25.5247 Si      1  UNL1        0.0000
      2 SI          7.0932    0.2213   23.0486 Si      1  UNL1        0.0000
      3 N           3.6454    0.4435   24.8600 N.3     1  UNL1        0.0000
      4 N           5.6040    0.7264   23.7678 N.3     1  UNL1        0.0000
      5 C           0.9070    0.9735   25.5805 C.3     1  UNL1        0.0000
      6 C           1.5423   -1.8438   24.5543 C.3     1  UNL1        0.0000
      7 C           2.7223   -0.9675   27.2917 C.3     1  UNL1        0.0000
      8 C           8.1334    1.8242   23.0427 C.3     1  UNL1        0.0000
      9 C           6.9287   -0.4303   21.2516 C.3     1  UNL1        0.0000
     10 C           8.0242   -1.1180   24.0568 C.3     1  UNL1        0.0000
     11 C           4.6275   -0.0731   24.1560 C.3     1  UNL1        0.0000
     12 C           4.6465   -1.5205   23.8281 C.ar    1  UNL1        0.0000
     13 C           4.2890   -1.9729   22.5648 C.ar    1  UNL1        0.0000
     14 C           4.2972   -3.3282   22.2847 C.ar    1  UNL1        0.0000
     15 C           4.6697   -4.2385   23.2593 C.ar    1  UNL1        0.0000
     16 C           5.0293   -3.7905   24.5201 C.ar    1  UNL1        0.0000
     17 C           5.0135   -2.4373   24.8063 C.ar    1  UNL1        0.0000
     18 H           0.2090    0.7878   26.3900 H       1  UNL1        0.0000
     19 H           1.3389    1.9589   25.7264 H       1  UNL1        0.0000
     20 H           0.3341    0.9884   24.6578 H       1  UNL1        0.0000
     21 H           1.4298   -1.6143   23.4986 H       1  UNL1        0.0000
     22 H           2.1637   -2.7301   24.6290 H       1  UNL1        0.0000
     23 H           0.5596   -2.0985   24.9394 H       1  UNL1        0.0000
     24 H           3.0051   -2.0160   27.2877 H       1  UNL1        0.0000
     25 H           1.8850   -0.8605   27.9732 H       1  UNL1        0.0000
     26 H           3.5566   -0.4016   27.7005 H       1  UNL1        0.0000
     27 H           8.9426    1.7704   23.7639 H       1  UNL1        0.0000
     28 H           7.5081    2.6789   23.2991 H       1  UNL1        0.0000
     29 H           8.5837    2.0049   22.0724 H       1  UNL1        0.0000
     30 H           6.2396    0.1700   20.6656 H       1  UNL1        0.0000
     31 H           7.8914   -0.4066   20.7514 H       1  UNL1        0.0000
     32 H           6.5757   -1.4564   21.2311 H       1  UNL1        0.0000
     33 H           8.0007   -0.8931   25.1193 H       1  UNL1        0.0000
     34 H           9.0651   -1.1768   23.7553 H       1  UNL1        0.0000
     35 H           7.5863   -2.1016   23.9184 H       1  UNL1        0.0000
     36 H           3.9982   -1.2599   21.8079 H       1  UNL1        0.0000
     37 H           4.0122   -3.6763   21.3024 H       1  UNL1        0.0000
     38 H           4.6779   -5.2956   23.0380 H       1  UNL1        0.0000
     39 H           5.3204   -4.4992   25.2818 H       1  UNL1        0.0000
     40 H           5.2892   -2.0777   25.7866 H       1  UNL1        0.0000
@<TRIPOS>BOND
     1    30     9    1
     2    31     9    1
     3    32     9    1
     4     9     2    1
     5    37    14    1
     6    36    13    1
     7    29     8    1
     8    14    13   ar
     9    14    15   ar
    10    13    12   ar
    11    38    15    1
    12     8     2    1
    13     8    28    1
    14     8    27    1
    15     2     4    1
    16     2    10    1
    17    15    16   ar
    18    21     6    1
    19    34    10    1
    20     4    11    1
    21    12    11    1
    22    12    17   ar
    23    35    10    1
    24    10    33    1
    25    11     3    1
    26    16    17   ar
    27    16    39    1
    28     6    22    1
    29     6    23    1
    30     6     1    1
    31    20     5    1
    32    17    40    1
    33     3     1    1
    34     1     5    1
    35     1     7    1
    36     5    19    1
    37     5    18    1
    38    24     7    1
    39     7    26    1
    40     7    25    1
