@<TRIPOS>MOLECULE
3,4
 40 40 0 0 0
SMALL
GASTEIGER

@<TRIPOS>ATOM
      1 SI          3.1349    3.1575   21.7370 Si      1  UNL1        0.0000
      2 SI          2.4817    4.3116   27.1146 Si      1  UNL1        0.0000
      3 N           3.3179    3.2999   23.4307 N.3     1  UNL1        0.0000
      4 N           3.0856    3.7182   25.6164 N.3     1  UNL1        0.0000
      5 C           4.9687    3.1160   21.1851 C.3     1  UNL1        0.0000
      6 C           2.2941    1.4644   21.4016 C.3     1  UNL1        0.0000
      7 C           2.2020    4.5365   20.7925 C.3     1  UNL1        0.0000
      8 C           0.5965    4.6438   27.2225 C.3     1  UNL1        0.0000
      9 C           3.3641    5.9355   27.6295 C.3     1  UNL1        0.0000
     10 C           2.9291    2.8600   28.2831 C.3     1  UNL1        0.0000
     11 C           2.6691    3.9238   24.3835 C.3     1  UNL1        0.0000
     12 C           1.5352    4.8322   24.0817 C.ar    1  UNL1        0.0000
     13 C           0.3093    4.3249   23.6706 C.ar    1  UNL1        0.0000
     14 C          -0.7408    5.1832   23.3972 C.ar    1  UNL1        0.0000
     15 C          -0.5688    6.5524   23.5149 C.ar    1  UNL1        0.0000
     16 C           0.6565    7.0625   23.9112 C.ar    1  UNL1        0.0000
     17 C           1.7040    6.2063   24.1999 C.ar    1  UNL1        0.0000
     18 H           5.5207    2.4398   21.8406 H       1  UNL1        0.0000
     19 H           5.4259    4.0998   21.2609 H       1  UNL1        0.0000
     20 H           5.0907    2.7794   20.1604 H       1  UNL1        0.0000
     21 H           2.5847    0.7547   22.1737 H       1  UNL1        0.0000
     22 H           2.5805    1.0554   20.4380 H       1  UNL1        0.0000
     23 H           1.2106    1.5393   21.4130 H       1  UNL1        0.0000
     24 H           2.3453    4.4410   19.7212 H       1  UNL1        0.0000
     25 H           1.1350    4.5075   20.9877 H       1  UNL1        0.0000
     26 H           2.5575    5.5190   21.0871 H       1  UNL1        0.0000
     27 H           0.0186    3.7959   26.8684 H       1  UNL1        0.0000
     28 H           0.3056    5.5054   26.6300 H       1  UNL1        0.0000
     29 H           0.3007    4.8369   28.2488 H       1  UNL1        0.0000
     30 H           2.8999    6.8021   27.1681 H       1  UNL1        0.0000
     31 H           4.4111    5.9268   27.3406 H       1  UNL1        0.0000
     32 H           3.3183    6.0778   28.7042 H       1  UNL1        0.0000
     33 H           3.6474    3.1549   29.0411 H       1  UNL1        0.0000
     34 H           3.3668    2.0522   27.6903 H       1  UNL1        0.0000
     35 H           2.0585    2.4703   28.8006 H       1  UNL1        0.0000
     36 H           0.1851    3.2568   23.5745 H       1  UNL1        0.0000
     37 H          -1.6964    4.7846   23.0885 H       1  UNL1        0.0000
     38 H          -1.3882    7.2213   23.2967 H       1  UNL1        0.0000
     39 H           0.7936    8.1306   23.9976 H       1  UNL1        0.0000
     40 H           2.6626    6.5932   24.5127 H       1  UNL1        0.0000
@<TRIPOS>BOND
     1    24     7    1
     2    20     5    1
     3    22     6    1
     4     7    25    1
     5     7    26    1
     6     7     1    1
     7     5    19    1
     8     5     1    1
     9     5    18    1
    10     6    23    1
    11     6     1    1
    12     6    21    1
    13     1     3    1
    14    37    14    1
    15    38    15    1
    16    14    15   ar
    17    14    13   ar
    18     3    11    1
    19    15    16   ar
    20    36    13    1
    21    13    12   ar
    22    16    39    1
    23    16    17   ar
    24    12    17   ar
    25    12    11    1
    26    17    40    1
    27    11     4    1
    28     4     2    1
    29    28     8    1
    30    27     8    1
    31     2     8    1
    32     2     9    1
    33     2    10    1
    34    30     9    1
    35     8    29    1
    36    31     9    1
    37     9    32    1
    38    34    10    1
    39    10    35    1
    40    10    33    1
