@<TRIPOS>MOLECULE
1,10
 60 61 0 0 0
SMALL
GASTEIGER

@<TRIPOS>ATOM
      1 N           9.3465    5.7333   -4.9455 N.pl3   1  UNL1        0.0000
      2 SI          7.7506    6.2903   -4.7144 Si      1  UNL1        0.0000
      3 C           6.8396    5.2444   -6.0423 C.3     1  UNL1        0.0000
      4 H           7.0543    4.1983   -5.7801 H       1  UNL1        0.0000
      5 H           5.7587    5.3701   -5.9740 H       1  UNL1        0.0000
      6 C           7.2984    5.5180   -7.4843 C.3     1  UNL1        0.0000
      7 H           8.1400    6.2161   -7.4822 H       1  UNL1        0.0000
      8 H           6.5012    6.0183   -8.0336 H       1  UNL1        0.0000
      9 SI          7.8358    3.9012   -8.3686 Si      1  UNL1        0.0000
     10 N           8.9547    3.1942   -7.2950 N.pl3   1  UNL1        0.0000
     11 C          10.4730    6.3216   -4.3680 C.ar    1  UNL1        0.0000
     12 C          10.9311    5.9101   -3.0993 C.ar    1  UNL1        0.0000
     13 C          12.0602    6.4901   -2.5446 C.ar    1  UNL1        0.0000
     14 H          12.3971    6.1611   -1.5714 H       1  UNL1        0.0000
     15 C          12.7541    7.4829   -3.2134 C.ar    1  UNL1        0.0000
     16 H          13.6315    7.9298   -2.7709 H       1  UNL1        0.0000
     17 C          12.3073    7.8966   -4.4538 C.ar    1  UNL1        0.0000
     18 H          12.8383    8.6747   -4.9847 H       1  UNL1        0.0000
     19 C          11.1804    7.3377   -5.0384 C.ar    1  UNL1        0.0000
     20 C          10.1948    4.8368   -2.3476 C.3     1  UNL1        0.0000
     21 H          10.9004    4.2031   -1.8099 H       1  UNL1        0.0000
     22 H           9.6123    4.2272   -3.0568 H       1  UNL1        0.0000
     23 H           9.5171    5.2825   -1.6169 H       1  UNL1        0.0000
     24 C          10.7347    7.8406   -6.3819 C.3     1  UNL1        0.0000
     25 H           9.9246    7.2277   -6.7671 H       1  UNL1        0.0000
     26 H          11.5634    7.8267   -7.0883 H       1  UNL1        0.0000
     27 H          10.3819    8.8681   -6.2995 H       1  UNL1        0.0000
     28 C           7.4830    8.1742   -4.9375 C.3     1  UNL1        0.0000
     29 H           7.5703    8.4744   -5.9761 H       1  UNL1        0.0000
     30 H           8.2252    8.7273   -4.3712 H       1  UNL1        0.0000
     31 H           6.5036    8.4812   -4.5866 H       1  UNL1        0.0000
     32 C           6.9281    5.8011   -3.0376 C.3     1  UNL1        0.0000
     33 H           7.0419    4.7330   -2.8534 H       1  UNL1        0.0000
     34 H           5.8649    6.0231   -3.0348 H       1  UNL1        0.0000
     35 H           7.3661    6.3351   -2.1996 H       1  UNL1        0.0000
     36 C           8.5373    4.2896  -10.1132 C.3     1  UNL1        0.0000
     37 H           8.9370    5.2957  -10.1899 H       1  UNL1        0.0000
     38 H           7.7732    4.1860  -10.8756 H       1  UNL1        0.0000
     39 H           9.3361    3.5953  -10.3551 H       1  UNL1        0.0000
     40 C           6.2503    2.8508   -8.6921 C.3     1  UNL1        0.0000
     41 H           6.4572    2.0072   -9.3440 H       1  UNL1        0.0000
     42 H           5.4871    3.4515   -9.1775 H       1  UNL1        0.0000
     43 H           5.8182    2.4588   -7.7756 H       1  UNL1        0.0000
     44 C          10.0809    2.4788   -7.6993 C.ar    1  UNL1        0.0000
     45 C          10.0479    1.0753   -7.7787 C.ar    1  UNL1        0.0000
     46 C          11.1606    0.3882   -8.2375 C.ar    1  UNL1        0.0000
     47 H          11.1269   -0.6903   -8.3077 H       1  UNL1        0.0000
     48 C          12.3121    1.0646   -8.6046 C.ar    1  UNL1        0.0000
     49 H          13.1694    0.5186   -8.9692 H       1  UNL1        0.0000
     50 C          12.3668    2.4432   -8.4798 C.ar    1  UNL1        0.0000
     51 H          13.2748    2.9700   -8.7407 H       1  UNL1        0.0000
     52 C          11.2694    3.1597   -8.0286 C.ar    1  UNL1        0.0000
     53 C           8.8012    0.3673   -7.3378 C.3     1  UNL1        0.0000
     54 H           8.4887    0.7651   -6.3658 H       1  UNL1        0.0000
     55 H           8.9696   -0.7046   -7.2615 H       1  UNL1        0.0000
     56 H           7.9936    0.5464   -8.0470 H       1  UNL1        0.0000
     57 C          11.3102    4.6533   -7.8626 C.3     1  UNL1        0.0000
     58 H          10.7693    4.9313   -6.9414 H       1  UNL1        0.0000
     59 H          10.8197    5.1410   -8.7059 H       1  UNL1        0.0000
     60 H          12.3384    5.0070   -7.8116 H       1  UNL1        0.0000
@<TRIPOS>BOND
     1    38    36    1
     2    39    36    1
     3    37    36    1
     4    36     9    1
     5    41    40    1
     6    42    40    1
     7    49    48    1
     8    51    50    1
     9    59    57    1
    10    40     9    1
    11    40    43    1
    12    48    50   ar
    13    48    46   ar
    14    50    52   ar
    15     9     6    1
    16     9    10    1
    17    47    46    1
    18    46    45   ar
    19    56    53    1
    20     8     6    1
    21    52    57    1
    22    52    44   ar
    23    57    60    1
    24    57    58    1
    25    45    44   ar
    26    45    53    1
    27    44    10    1
    28     6     7    1
    29     6     3    1
    30    53    55    1
    31    53    54    1
    32    26    24    1
    33    25    24    1
    34    24    27    1
    35    24    19    1
    36     3     5    1
    37     3     4    1
    38     3     2    1
    39    29    28    1
    40    19    17   ar
    41    19    11   ar
    42    18    17    1
    43     1     2    1
    44     1    11    1
    45    28     2    1
    46    28    31    1
    47    28    30    1
    48     2    32    1
    49    17    15   ar
    50    11    12   ar
    51    15    16    1
    52    15    13   ar
    53    12    13   ar
    54    12    20    1
    55    22    20    1
    56    32    34    1
    57    32    33    1
    58    32    35    1
    59    13    14    1
    60    20    21    1
    61    20    23    1
