@<TRIPOS>MOLECULE
2,3
 59 62 0 0 0
SMALL
GASTEIGER

@<TRIPOS>ATOM
      1 SI          3.5721    6.7835    3.1303 Si      1  UNL1        0.0000
      2 N           2.4752    6.7803    4.4691 N.pl3   1  UNL1        0.0000
      3 N           3.6025    5.0624    2.9992 N.pl3   1  UNL1        0.0000
      4 C           2.3754    7.7005    5.4926 C.ar    1  UNL1        0.0000
      5 C           3.3626    7.8072    6.4971 C.ar    1  UNL1        0.0000
      6 C           3.2372    8.7646    7.4902 C.ar    1  UNL1        0.0000
      7 H           4.0077    8.8437    8.2458 H       1  UNL1        0.0000
      8 C           2.1462    9.6147    7.5347 C.ar    1  UNL1        0.0000
      9 H           2.0677   10.3623    8.3100 H       1  UNL1        0.0000
     10 C           1.1454    9.4801    6.5885 C.ar    1  UNL1        0.0000
     11 H           0.2739   10.1193    6.6325 H       1  UNL1        0.0000
     12 C           1.2434    8.5368    5.5807 C.ar    1  UNL1        0.0000
     13 C           4.5123    6.8413    6.5138 C.3     1  UNL1        0.0000
     14 H           4.1431    5.8484    6.2174 H       1  UNL1        0.0000
     15 H           4.9526    6.7950    7.5093 H       1  UNL1        0.0000
     16 H           5.2896    7.1418    5.8116 H       1  UNL1        0.0000
     17 C           0.1494    8.3673    4.5690 C.3     1  UNL1        0.0000
     18 H           0.0584    7.3036    4.3271 H       1  UNL1        0.0000
     19 H           0.3942    8.9028    3.6511 H       1  UNL1        0.0000
     20 H          -0.7973    8.7463    4.9500 H       1  UNL1        0.0000
     21 C           1.5752    7.7876    1.2825 C.ar    1  UNL1        0.0000
     22 H           0.8811    7.2671    1.9246 H       1  UNL1        0.0000
     23 C           1.1083    8.4630    0.1687 C.ar    1  UNL1        0.0000
     24 H           0.0506    8.4681   -0.0587 H       1  UNL1        0.0000
     25 C           1.9961    9.1309   -0.6573 C.ar    1  UNL1        0.0000
     26 H           1.6379    9.6600   -1.5291 H       1  UNL1        0.0000
     27 C           3.3473    9.1157   -0.3564 C.ar    1  UNL1        0.0000
     28 H           4.0488    9.6355   -0.9950 H       1  UNL1        0.0000
     29 C           3.8020    8.4381    0.7612 C.ar    1  UNL1        0.0000
     30 H           4.8603    8.4368    0.9841 H       1  UNL1        0.0000
     31 C           2.9269    7.7607    1.6060 C.ar    1  UNL1        0.0000
     32 C           5.3712    8.8895    3.8994 C.ar    1  UNL1        0.0000
     33 H           4.4627    9.4062    4.1754 H       1  UNL1        0.0000
     34 C           6.5941    9.5126    4.0685 C.ar    1  UNL1        0.0000
     35 H           6.6396   10.5145    4.4718 H       1  UNL1        0.0000
     36 C           7.7615    8.8531    3.7188 C.ar    1  UNL1        0.0000
     37 H           8.7192    9.3372    3.8488 H       1  UNL1        0.0000
     38 C           7.6940    7.5724    3.1974 C.ar    1  UNL1        0.0000
     39 H           8.6004    7.0546    2.9146 H       1  UNL1        0.0000
     40 C           6.4653    6.9554    3.0333 C.ar    1  UNL1        0.0000
     41 H           6.4191    5.9609    2.6119 H       1  UNL1        0.0000
     42 C           5.2838    7.5975    3.3870 C.ar    1  UNL1        0.0000
     43 C           4.4887    4.2307    2.3721 C.ar    1  UNL1        0.0000
     44 C           4.5080    4.0567    0.9686 C.ar    1  UNL1        0.0000
     45 C           5.3760    3.1432    0.3956 C.ar    1  UNL1        0.0000
     46 H           5.3762    3.0240   -0.6793 H       1  UNL1        0.0000
     47 C           6.2380    2.3828    1.1675 C.ar    1  UNL1        0.0000
     48 H           6.9053    1.6726    0.7034 H       1  UNL1        0.0000
     49 C           6.2443    2.5558    2.5413 C.ar    1  UNL1        0.0000
     50 H           6.9327    1.9850    3.1511 H       1  UNL1        0.0000
     51 C           5.3953    3.4648    3.1477 C.ar    1  UNL1        0.0000
     52 C           3.5757    4.8611    0.1150 C.3     1  UNL1        0.0000
     53 H           3.9811    5.8575   -0.0589 H       1  UNL1        0.0000
     54 H           2.6186    4.9892    0.6211 H       1  UNL1        0.0000
     55 H           3.4182    4.3803   -0.8482 H       1  UNL1        0.0000
     56 C           5.4638    3.7066    4.6333 C.3     1  UNL1        0.0000
     57 H           6.1330    4.5483    4.8344 H       1  UNL1        0.0000
     58 H           5.8611    2.8337    5.1539 H       1  UNL1        0.0000
     59 H           4.4600    3.9716    5.0172 H       1  UNL1        0.0000
@<TRIPOS>BOND
     1    26    25    1
     2    28    27    1
     3    55    52    1
     4    46    45    1
     5    25    27   ar
     6    25    23   ar
     7    27    29   ar
     8    53    52    1
     9    24    23    1
    10    52    54    1
    11    52    44    1
    12    23    21   ar
    13    45    44   ar
    14    45    47   ar
    15    48    47    1
    16    29    30    1
    17    29    31   ar
    18    44    43   ar
    19    47    49   ar
    20    21    31   ar
    21    21    22    1
    22    31     1    1
    23    43     3    1
    24    43    51   ar
    25    49    51   ar
    26    49    50    1
    27    41    40    1
    28    39    38    1
    29     3     1    1
    30    40    38   ar
    31    40    42   ar
    32     1    42    1
    33     1     2    1
    34    51    56    1
    35    38    36   ar
    36    42    32   ar
    37    19    17    1
    38    36    37    1
    39    36    34   ar
    40    32    34   ar
    41    32    33    1
    42    34    35    1
    43    18    17    1
    44     2     4    1
    45    17    20    1
    46    17    12    1
    47    56    57    1
    48    56    59    1
    49    56    58    1
    50     4    12   ar
    51     4     5   ar
    52    12    10   ar
    53    16    13    1
    54    14    13    1
    55     5    13    1
    56     5     6   ar
    57    13    15    1
    58    10    11    1
    59    10     8   ar
    60     6     8   ar
    61     6     7    1
    62     8     9    1
