@<TRIPOS>MOLECULE
1,2
 27 26 0 0 0
SMALL
GASTEIGER

@<TRIPOS>ATOM
      1 N           2.1052    1.9196   12.9954 N.3     1  UNL1       -0.2116
      2 N           3.9691    1.9455   11.8710 N.3     1  UNL1       -0.2116
      3 C           3.1550    2.6428   12.6449 C.3     1  UNL1        0.1330
      4 C           3.4242    4.0510   13.1190 C.3     1  UNL1       -0.0275
      5 H           4.4946    4.2095   13.2339 H       1  UNL1        0.0262
      6 H           2.9409    4.2274   14.0770 H       1  UNL1        0.0262
      7 H           3.0461    4.7785   12.4027 H       1  UNL1        0.0262
      8 C           0.9642    2.4964   13.6702 C.3     1  UNL1        0.0219
      9 H           1.2950    3.0325   14.5760 H       1  UNL1        0.0472
     10 C           0.0140    1.3815   14.0908 C.3     1  UNL1       -0.0483
     11 H          -0.3208    0.8563   13.2015 H       1  UNL1        0.0245
     12 H          -0.8485    1.7972   14.6064 H       1  UNL1        0.0245
     13 H           0.5142    0.6860   14.7567 H       1  UNL1        0.0245
     14 C           0.2192    3.4624   12.7410 C.3     1  UNL1       -0.0483
     15 H           0.7903    4.3695   12.5640 H       1  UNL1        0.0245
     16 H          -0.7404    3.7377   13.1715 H       1  UNL1        0.0245
     17 H           0.0597    2.9621   11.7857 H       1  UNL1        0.0245
     18 C           5.0842    2.5574   11.1842 C.3     1  UNL1        0.0219
     19 H           5.6814    3.1539   11.8941 H       1  UNL1        0.0472
     20 C           5.9799    1.4713   10.5997 C.3     1  UNL1       -0.0483
     21 H           6.3666    0.8312   11.3862 H       1  UNL1        0.0245
     22 H           6.8189    1.9204   10.0734 H       1  UNL1        0.0245
     23 H           5.3984    0.8781    9.9011 H       1  UNL1        0.0245
     24 C           4.5837    3.4608   10.0513 C.3     1  UNL1       -0.0483
     25 H           3.8734    2.8947    9.4488 H       1  UNL1        0.0245
     26 H           5.4142    3.7838    9.4283 H       1  UNL1        0.0245
     27 H           4.0793    4.3421   10.4384 H       1  UNL1        0.0245
@<TRIPOS>BOND
     1    26    24    1
     2    25    24    1
     3    23    20    1
     4    24    27    1
     5    24    18    1
     6    22    20    1
     7    20    18    1
     8    20    21    1
     9    18     2    1
    10    18    19    1
    11    17    14    1
    12     2     3    1
    13     7     4    1
    14    15    14    1
    15     3     1    1
    16     3     4    1
    17    14    16    1
    18    14     8    1
    19     1     8    1
    20     4     5    1
    21     4     6    1
    22    11    10    1
    23     8    10    1
    24     8     9    1
    25    10    12    1
    26    10    13    1
