@<TRIPOS>MOLECULE
1,2
 27 26 0 0 0
SMALL
GASTEIGER

@<TRIPOS>ATOM
      1 N           2.1228    1.8930   13.0629 N.3     1  UNL1       -0.2116
      2 N           3.9920    1.9328   11.9164 N.3     1  UNL1       -0.2116
      3 C           3.1816    2.6143   12.7165 C.3     1  UNL1        0.1330
      4 C           3.4661    4.0069   13.2233 C.3     1  UNL1       -0.0275
      5 H           4.5383    4.1530   13.3360 H       1  UNL1        0.0262
      6 H           2.9887    4.1649   14.1872 H       1  UNL1        0.0262
      7 H           3.0909    4.7537   12.5263 H       1  UNL1        0.0262
      8 C           0.9731    2.4757   13.7228 C.3     1  UNL1        0.0219
      9 H           1.2850    3.0244   14.6268 H       1  UNL1        0.0472
     10 C           0.0275    1.3530   14.1378 C.3     1  UNL1       -0.0483
     11 H          -0.2692    0.8062   13.2464 H       1  UNL1        0.0245
     12 H          -0.8578    1.7612   14.6197 H       1  UNL1        0.0245
     13 H           0.5202    0.6768   14.8301 H       1  UNL1        0.0245
     14 C           0.2457    3.4236   12.7608 C.3     1  UNL1       -0.0483
     15 H           0.8006    4.3459   12.6144 H       1  UNL1        0.0245
     16 H          -0.7423    3.6709   13.1406 H       1  UNL1        0.0245
     17 H           0.1515    2.9187   11.7970 H       1  UNL1        0.0245
     18 C           5.0854    2.5645   11.2082 C.3     1  UNL1        0.0219
     19 H           5.6953    3.1674   11.9005 H       1  UNL1        0.0472
     20 C           5.9712    1.4822   10.5987 C.3     1  UNL1       -0.0483
     21 H           6.3890    0.8498   11.3765 H       1  UNL1        0.0245
     22 H           6.7881    1.9316   10.0392 H       1  UNL1        0.0245
     23 H           5.3673    0.8787    9.9267 H       1  UNL1        0.0245
     24 C           4.5306    3.4587   10.0921 C.3     1  UNL1       -0.0483
     25 H           3.7695    2.8929    9.5507 H       1  UNL1        0.0245
     26 H           5.3223    3.7540    9.4081 H       1  UNL1        0.0245
     27 H           4.0696    4.3558   10.4960 H       1  UNL1        0.0245
@<TRIPOS>BOND
     1    26    24    1
     2    25    24    1
     3    23    20    1
     4    22    20    1
     5    24    27    1
     6    24    18    1
     7    20    18    1
     8    20    21    1
     9    18    19    1
    10    18     2    1
    11    17    14    1
    12     2     3    1
    13     7     4    1
    14    15    14    1
    15     3     1    1
    16     3     4    1
    17    14    16    1
    18    14     8    1
    19     1     8    1
    20     4     5    1
    21     4     6    1
    22    11    10    1
    23     8    10    1
    24     8     9    1
    25    10    12    1
    26    10    13    1
