@<TRIPOS>MOLECULE
1,2
 27 26 0 0 0
SMALL
GASTEIGER

@<TRIPOS>ATOM
      1 N           0.7163    2.2721    9.2194 N.3     1  UNL1       -0.2116
      2 N           2.5536    1.0889    9.1858 N.3     1  UNL1       -0.2116
      3 C           1.6707    1.7458    8.4651 C.3     1  UNL1        0.1330
      4 C           1.7615    1.8565    6.9594 C.3     1  UNL1       -0.0275
      5 H           2.6822    2.3656    6.6791 H       1  UNL1        0.0262
      6 H           0.9246    2.4037    6.5408 H       1  UNL1        0.0262
      7 H           1.7780    0.8604    6.5192 H       1  UNL1        0.0262
      8 C          -0.1361    3.3219    8.6898 C.3     1  UNL1        0.0219
      9 H           0.4474    3.9328    7.9809 H       1  UNL1        0.0472
     10 C          -0.5868    4.2499    9.8168 C.3     1  UNL1       -0.0483
     11 H          -1.0582    3.6801   10.6127 H       1  UNL1        0.0245
     12 H          -1.3005    4.9766    9.4333 H       1  UNL1        0.0245
     13 H           0.2621    4.7841   10.2332 H       1  UNL1        0.0245
     14 C          -1.3702    2.7754    7.9456 C.3     1  UNL1       -0.0483
     15 H          -1.1186    1.8969    7.3551 H       1  UNL1        0.0245
     16 H          -1.7657    3.5385    7.2782 H       1  UNL1        0.0245
     17 H          -2.1527    2.5032    8.6472 H       1  UNL1        0.0245
     18 C           3.6780    0.3840    8.6205 C.3     1  UNL1        0.0219
     19 H           3.9768    0.8462    7.6668 H       1  UNL1        0.0472
     20 C           4.8635    0.4723    9.5804 C.3     1  UNL1       -0.0483
     21 H           5.0575    1.5127    9.8316 H       1  UNL1        0.0245
     22 H           5.7524    0.0429    9.1233 H       1  UNL1        0.0245
     23 H           4.6414   -0.0697   10.4959 H       1  UNL1        0.0245
     24 C           3.3317   -1.0871    8.3527 C.3     1  UNL1       -0.0483
     25 H           3.1018   -1.5840    9.2911 H       1  UNL1        0.0245
     26 H           4.1735   -1.5931    7.8861 H       1  UNL1        0.0245
     27 H           2.4684   -1.1706    7.6963 H       1  UNL1        0.0245
@<TRIPOS>BOND
     1     7     4    1
     2     6     4    1
     3     5     4    1
     4     4     3    1
     5    16    14    1
     6    15    14    1
     7    19    18    1
     8    27    24    1
     9    26    24    1
    10    14    17    1
    11    14     8    1
    12     9     8    1
    13    24    18    1
    14    24    25    1
    15     3     2    1
    16     3     1    1
    17    18     2    1
    18    18    20    1
    19     8     1    1
    20     8    10    1
    21    22    20    1
    22    12    10    1
    23    20    21    1
    24    20    23    1
    25    10    13    1
    26    10    11    1
