@<TRIPOS>MOLECULE
3,4
 37 36 0 0 0
SMALL
GASTEIGER

@<TRIPOS>ATOM
      1 SI         -2.3044    7.0547    6.8655 Si      1  UNL1        0.0000
      2 SI         -0.0539    2.3771    9.8062 Si      1  UNL1        0.0000
      3 N          -2.1702    5.9527    8.1642 N.3     1  UNL1        0.0000
      4 N          -0.7285    3.3282    8.5562 N.3     1  UNL1        0.0000
      5 C          -3.9892    6.6790    6.0301 C.3     1  UNL1        0.0000
      6 H          -3.8566    6.2154    5.0590 H       1  UNL1        0.0000
      7 H          -4.5402    7.5988    5.8655 H       1  UNL1        0.0000
      8 H          -4.6082    6.0251    6.6414 H       1  UNL1        0.0000
      9 C          -2.3176    8.8834    7.4618 C.3     1  UNL1        0.0000
     10 H          -1.3771    9.1525    7.9334 H       1  UNL1        0.0000
     11 H          -3.1098    9.0771    8.1781 H       1  UNL1        0.0000
     12 H          -2.4613    9.5597    6.6256 H       1  UNL1        0.0000
     13 C          -0.9604    7.0403    5.4809 C.3     1  UNL1        0.0000
     14 H          -0.7767    6.0433    5.0914 H       1  UNL1        0.0000
     15 H          -0.0117    7.4303    5.8385 H       1  UNL1        0.0000
     16 H          -1.2661    7.6634    4.6456 H       1  UNL1        0.0000
     17 C          -1.0880    6.1263    9.1213 C.3     1  UNL1        0.0000
     18 H          -1.3351    5.5688   10.0448 H       1  UNL1        0.0000
     19 H          -0.9688    7.1857    9.3945 H       1  UNL1        0.0000
     20 C           0.2712    5.6178    8.6031 C.3     1  UNL1        0.0000
     21 H           0.9486    5.4838    9.4496 H       1  UNL1        0.0000
     22 H           0.7044    6.3535    7.9228 H       1  UNL1        0.0000
     23 C           0.1099    4.2828    7.8539 C.3     1  UNL1        0.0000
     24 H          -0.3489    4.4910    6.8716 H       1  UNL1        0.0000
     25 H           1.1148    3.8731    7.6778 H       1  UNL1        0.0000
     26 C          -0.0926    3.1698   11.5695 C.3     1  UNL1        0.0000
     27 H           0.5052    4.0768   11.6132 H       1  UNL1        0.0000
     28 H           0.3139    2.4840   12.3065 H       1  UNL1        0.0000
     29 H          -1.0991    3.4260   11.8877 H       1  UNL1        0.0000
     30 C          -1.0172    0.7175    9.8391 C.3     1  UNL1        0.0000
     31 H          -1.9815    0.7922    9.3371 H       1  UNL1        0.0000
     32 H          -1.1895    0.3852   10.8575 H       1  UNL1        0.0000
     33 H          -0.4511   -0.0638    9.3433 H       1  UNL1        0.0000
     34 C           1.7995    1.9637    9.5275 C.3     1  UNL1        0.0000
     35 H           2.4190    2.8540    9.5758 H       1  UNL1        0.0000
     36 H           1.9682    1.4950    8.5633 H       1  UNL1        0.0000
     37 H           2.1583    1.2785   10.2883 H       1  UNL1        0.0000
@<TRIPOS>BOND
     1    16    13    1
     2     6     5    1
     3    14    13    1
     4    13    15    1
     5    13     1    1
     6     7     5    1
     7     5     8    1
     8     5     1    1
     9    12     9    1
    10     1     9    1
    11     1     3    1
    12    24    23    1
    13     9    10    1
    14     9    11    1
    15    25    23    1
    16    23     4    1
    17    23    20    1
    18    22    20    1
    19     3    17    1
    20     4     2    1
    21    36    34    1
    22    20    17    1
    23    20    21    1
    24    17    19    1
    25    17    18    1
    26    31    30    1
    27    33    30    1
    28    34    35    1
    29    34     2    1
    30    34    37    1
    31     2    30    1
    32     2    26    1
    33    30    32    1
    34    26    27    1
    35    26    29    1
    36    26    28    1
