@<TRIPOS>MOLECULE
1,2
 24 25 0 0 0
SMALL
GASTEIGER

@<TRIPOS>ATOM
      1 N           1.2850    1.0999    5.2901 N.pl3   1  UNL1       -0.1294
      2 N           2.3643    1.9756    5.6338 N.pl3   1  UNL1       -0.1294
      3 C           0.5364    0.5988    6.3266 C.ar    1  UNL1        0.0724
      4 C           0.8557    0.8009    7.6793 C.ar    1  UNL1       -0.0372
      5 C           0.0949    0.2198    8.6729 C.ar    1  UNL1       -0.0599
      6 C          -0.9942   -0.5776    8.3596 C.ar    1  UNL1       -0.0616
      7 C          -1.3163   -0.7916    7.0259 C.ar    1  UNL1       -0.0599
      8 C          -0.5660   -0.2204    6.0215 C.ar    1  UNL1       -0.0372
      9 C           3.5341    1.2989    5.9189 C.ar    1  UNL1        0.0724
     10 C           4.6671    1.9843    6.4029 C.ar    1  UNL1       -0.0372
     11 C           5.8322    1.3163    6.7206 C.ar    1  UNL1       -0.0599
     12 C           5.9196   -0.0604    6.6020 C.ar    1  UNL1       -0.0616
     13 C           4.8000   -0.7616    6.1806 C.ar    1  UNL1       -0.0599
     14 C           3.6343   -0.1066    5.8515 C.ar    1  UNL1       -0.0372
     15 H           1.7101    1.4125    7.9319 H       1  UNL1        0.0637
     16 H           0.3576    0.3879    9.7082 H       1  UNL1        0.0618
     17 H          -1.5815   -1.0331    9.1425 H       1  UNL1        0.0618
     18 H          -2.1602   -1.4176    6.7716 H       1  UNL1        0.0618
     19 H          -0.7993   -0.4009    4.9800 H       1  UNL1        0.0637
     20 H           4.6294    3.0517    6.5801 H       1  UNL1        0.0637
     21 H           6.6808    1.8814    7.0820 H       1  UNL1        0.0618
     22 H           6.8331   -0.5766    6.8546 H       1  UNL1        0.0618
     23 H           4.8368   -1.8396    6.1096 H       1  UNL1        0.0618
     24 H           2.7726   -0.6792    5.5451 H       1  UNL1        0.0637
@<TRIPOS>BOND
     1    19     8    1
     2     1     2    1
     3     1     3    1
     4    24    14    1
     5     2     9    1
     6    14     9   ar
     7    14    13   ar
     8     9    10   ar
     9     8     3   ar
    10     8     7   ar
    11    23    13    1
    12    13    12   ar
    13     3     4   ar
    14    10    20    1
    15    10    11   ar
    16    12    11   ar
    17    12    22    1
    18    11    21    1
    19    18     7    1
    20     7     6   ar
    21     4    15    1
    22     4     5   ar
    23     6     5   ar
    24     6    17    1
    25     5    16    1
