@<TRIPOS>MOLECULE
3,4
 38 38 0 0 0
SMALL
GASTEIGER

@<TRIPOS>ATOM
      1 SI         -1.0289   -3.0042   -2.9891 Si      1  UNL1        0.0000
      2 SI          3.2731   -5.0624   -2.6751 Si      1  UNL1        0.0000
      3 N          -0.0475   -2.9673   -4.4030 N.pl3   1  UNL1        0.0000
      4 N           2.1601   -4.2839   -3.7426 N.pl3   1  UNL1        0.0000
      5 C           0.2431   -4.1115   -5.1393 C.ar    1  UNL1        0.0000
      6 C           1.4072   -4.8586   -4.7370 C.ar    1  UNL1        0.0000
      7 C           1.6503   -6.0884   -5.3543 C.ar    1  UNL1        0.0000
      8 C           0.8271   -6.5457   -6.3685 C.ar    1  UNL1        0.0000
      9 C          -0.2729   -5.8068   -6.7767 C.ar    1  UNL1        0.0000
     10 C          -0.5752   -4.6090   -6.1504 C.ar    1  UNL1        0.0000
     11 C          -1.3517   -4.8043   -2.4280 C.3     1  UNL1        0.0000
     12 C          -2.7098   -2.1209   -3.2276 C.3     1  UNL1        0.0000
     13 C           0.0515   -2.0555   -1.7179 C.3     1  UNL1        0.0000
     14 C           2.3413   -6.2146   -1.4609 C.3     1  UNL1        0.0000
     15 C           4.6772   -6.0942   -3.4844 C.3     1  UNL1        0.0000
     16 C           4.0396   -3.5624   -1.7705 C.3     1  UNL1        0.0000
     17 H           2.4900   -6.6795   -5.0221 H       1  UNL1        0.0000
     18 H           1.0417   -7.4938   -6.8391 H       1  UNL1        0.0000
     19 H          -0.9101   -6.1761   -7.5655 H       1  UNL1        0.0000
     20 H          -1.4626   -4.0519   -6.4176 H       1  UNL1        0.0000
     21 H          -2.0037   -5.3130   -3.1320 H       1  UNL1        0.0000
     22 H          -1.8247   -4.8444   -1.4527 H       1  UNL1        0.0000
     23 H          -0.4249   -5.3690   -2.3767 H       1  UNL1        0.0000
     24 H          -2.5877   -1.0721   -3.4800 H       1  UNL1        0.0000
     25 H          -3.2883   -2.1698   -2.3117 H       1  UNL1        0.0000
     26 H          -3.3011   -2.5828   -4.0122 H       1  UNL1        0.0000
     27 H           0.2681   -1.0525   -2.0925 H       1  UNL1        0.0000
     28 H           1.0041   -2.5753   -1.5738 H       1  UNL1        0.0000
     29 H          -0.4254   -1.9491   -0.7485 H       1  UNL1        0.0000
     30 H           1.7926   -6.9893   -1.9896 H       1  UNL1        0.0000
     31 H           1.6307   -5.6671   -0.8482 H       1  UNL1        0.0000
     32 H           3.0396   -6.7073   -0.7925 H       1  UNL1        0.0000
     33 H           4.3702   -7.1197   -3.6696 H       1  UNL1        0.0000
     34 H           5.5373   -6.1361   -2.8232 H       1  UNL1        0.0000
     35 H           5.0150   -5.6755   -4.4290 H       1  UNL1        0.0000
     36 H           3.5964   -3.4136   -0.7908 H       1  UNL1        0.0000
     37 H           3.8837   -2.6506   -2.3596 H       1  UNL1        0.0000
     38 H           5.1063   -3.6863   -1.6191 H       1  UNL1        0.0000
@<TRIPOS>BOND
     1    19     9    1
     2    18     8    1
     3     9     8   ar
     4     9    10   ar
     5    20    10    1
     6     8     7   ar
     7    10     5   ar
     8     7    17    1
     9     7     6   ar
    10     5     6   ar
    11     5     3    1
    12     6     4    1
    13    35    15    1
    14     3     1    1
    15    26    12    1
    16     4     2    1
    17    33    15    1
    18    15    34    1
    19    15     2    1
    20    24    12    1
    21    12     1    1
    22    12    25    1
    23    21    11    1
    24     1    11    1
    25     1    13    1
    26     2    16    1
    27     2    14    1
    28    11    23    1
    29    11    22    1
    30    37    16    1
    31    27    13    1
    32    30    14    1
    33    16    38    1
    34    16    36    1
    35    13    28    1
    36    13    29    1
    37    14    31    1
    38    14    32    1
