@<TRIPOS>MOLECULE
1,2
 22 22 0 0 0
SMALL
GASTEIGER

@<TRIPOS>ATOM
      1 N          -1.2552    5.0156    4.0931 N.pl3   1  UNL1       -0.2557
      2 N          -3.3914    6.3168    3.6472 N.pl3   1  UNL1       -0.2524
      3 C          -2.3563    4.4057    4.4982 C.2     1  UNL1        0.0551
      4 C          -2.3312    3.2763    5.3490 C.3     1  UNL1        0.0304
      5 C          -3.3257    2.4043    5.7358 C.2     1  UNL1       -0.0744
      6 C          -4.6506    2.3413    5.3303 C.2     1  UNL1       -0.0650
      7 C          -5.3112    3.2570    4.5276 C.2     1  UNL1       -0.0602
      8 C          -4.8665    4.4651    4.0314 C.2     1  UNL1       -0.0376
      9 C          -3.5948    5.0758    4.0646 C.2     1  UNL1        0.0664
     10 C           0.0292    4.4162    4.3941 C.3     1  UNL1        0.0197
     11 C          -4.5364    7.1655    3.3987 C.3     1  UNL1        0.0200
     12 H          -1.3657    3.0675    5.7896 H       1  UNL1        0.0414
     13 H          -3.0118    1.6265    6.4226 H       1  UNL1        0.0579
     14 H          -5.2285    1.4992    5.6859 H       1  UNL1        0.0615
     15 H          -6.3423    3.0169    4.2941 H       1  UNL1        0.0618
     16 H          -5.6136    5.0200    3.4790 H       1  UNL1        0.0637
     17 H           0.7999    4.9382    3.8248 H       1  UNL1        0.0446
     18 H           0.0492    3.3518    4.1245 H       1  UNL1        0.0446
     19 H           0.2682    4.5104    5.4602 H       1  UNL1        0.0446
     20 H          -5.2366    7.1288    4.2432 H       1  UNL1        0.0446
     21 H          -5.0792    6.8831    2.4856 H       1  UNL1        0.0446
     22 H          -4.1880    8.1933    3.2833 H       1  UNL1        0.0446
@<TRIPOS>BOND
     1    21    11    1
     2    22    11    1
     3    11     2    1
     4    11    20    1
     5    16     8    1
     6     2     9    1
     7    17    10    1
     8     8     9    1
     9     8     7    2
    10     9     3    2
    11     1    10    1
    12     1     3    1
    13    18    10    1
    14    15     7    1
    15    10    19    1
    16     3     4    1
    17     7     6    1
    18     6    14    1
    19     6     5    2
    20     4     5    1
    21     4    12    1
    22     5    13    1
