@<TRIPOS>MOLECULE
1,2
 22 22 0 0 0
SMALL
GASTEIGER

@<TRIPOS>ATOM
      1 N          -2.0348    5.2037    1.3665 N.3     1  UNL1       -0.2244
      2 N          -2.2187    7.6998    1.3944 N.pl3   1  UNL1       -0.2559
      3 C          -3.1193    7.1117    0.6151 C.2     1  UNL1        0.0528
      4 C          -3.9210    7.8247   -0.2970 C.2     1  UNL1       -0.0410
      5 C          -4.9898    7.4221   -1.0777 C.2     1  UNL1       -0.0602
      6 C          -5.6084    6.1892   -1.1677 C.2     1  UNL1       -0.0619
      7 C          -5.2090    5.0102   -0.5464 C.2     1  UNL1       -0.0635
      8 C          -4.1029    4.7674    0.2306 C.2     1  UNL1       -0.0546
      9 C          -3.1027    5.6394    0.7327 C.3     1  UNL1        0.1219
     10 C          -1.6975    3.8013    1.3452 C.3     1  UNL1        0.0039
     11 C          -1.9017    9.0986    1.1943 C.3     1  UNL1        0.0197
     12 H          -3.6877    8.8765   -0.3874 H       1  UNL1        0.0634
     13 H          -5.4323    8.2081   -1.6795 H       1  UNL1        0.0618
     14 H          -6.4860    6.1297   -1.7972 H       1  UNL1        0.0618
     15 H          -5.8409    4.1490   -0.7339 H       1  UNL1        0.0615
     16 H          -3.9923    3.7389    0.5508 H       1  UNL1        0.0595
     17 H          -0.6559    3.7033    1.6590 H       1  UNL1        0.0405
     18 H          -2.3285    3.2018    2.0190 H       1  UNL1        0.0405
     19 H          -1.7907    3.3908    0.3314 H       1  UNL1        0.0405
     20 H          -0.9844    9.3278    1.7403 H       1  UNL1        0.0446
     21 H          -2.7025    9.7619    1.5518 H       1  UNL1        0.0446
     22 H          -1.7187    9.3096    0.1329 H       1  UNL1        0.0446
@<TRIPOS>BOND
     1    14     6    1
     2    13     5    1
     3     6     5    2
     4     6     7    1
     5     5     4    1
     6    15     7    1
     7     7     8    2
     8    12     4    1
     9     4     3    2
    10    22    11    1
    11     8    16    1
    12     8     9    1
    13    19    10    1
    14     3     9    1
    15     3     2    1
    16     9     1    1
    17    11     2    1
    18    11    21    1
    19    11    20    1
    20    10     1    1
    21    10    17    1
    22    10    18    1
