@<TRIPOS>MOLECULE
2,22
 38 38 0 0 0
SMALL
GASTEIGER

@<TRIPOS>ATOM
      1 SI         -2.1257   -0.8209    9.1825 Si      1  UNL1        0.0000
      2 N          -1.3726    0.4420   10.1250 N.3     1  UNL1        0.0000
      3 C          -2.9867   -2.3347   10.0115 C.3     1  UNL1        0.0000
      4 H          -2.8367   -2.4463   11.0823 H       1  UNL1        0.0000
      5 H          -4.0507   -2.4552    9.8242 H       1  UNL1        0.0000
      6 C          -2.1258   -3.3082    9.1825 C.3     1  UNL1        0.0000
      7 H          -2.7362   -3.9485    8.5481 H       1  UNL1        0.0000
      8 H          -1.5154   -3.9485    9.8170 H       1  UNL1        0.0000
      9 C          -0.1445    0.5075   10.8661 C.3     1  UNL1        0.0000
     10 C          -0.1183    1.8849   11.5600 C.3     1  UNL1        0.0000
     11 H          -0.1281    2.6806   10.8003 H       1  UNL1        0.0000
     12 H           0.7754    1.9955   12.1712 H       1  UNL1        0.0000
     13 H          -0.9996    1.9872   12.1996 H       1  UNL1        0.0000
     14 C           1.0476    0.4018    9.8975 C.3     1  UNL1        0.0000
     15 H           1.0773   -0.5916    9.4565 H       1  UNL1        0.0000
     16 H           1.9855    0.5876   10.4157 H       1  UNL1        0.0000
     17 H           0.9255    1.1335    9.0935 H       1  UNL1        0.0000
     18 C          -0.0796   -0.6106   11.9138 C.3     1  UNL1        0.0000
     19 H          -0.9406   -0.5405   12.5747 H       1  UNL1        0.0000
     20 H           0.8308   -0.5321   12.5025 H       1  UNL1        0.0000
     21 H          -0.1009   -1.5777   11.4189 H       1  UNL1        0.0000
     22 N          -2.8787    0.4420    8.2400 N.3     1  UNL1        0.0000
     23 C          -4.1068    0.5075    7.4987 C.3     1  UNL1        0.0000
     24 C          -4.1330    1.8850    6.8048 C.3     1  UNL1        0.0000
     25 H          -4.1232    2.6806    7.5646 H       1  UNL1        0.0000
     26 H          -5.0266    1.9956    6.1936 H       1  UNL1        0.0000
     27 H          -3.2516    1.9873    6.1654 H       1  UNL1        0.0000
     28 C          -5.2989    0.4017    8.4671 C.3     1  UNL1        0.0000
     29 H          -5.3286   -0.5917    8.9080 H       1  UNL1        0.0000
     30 H          -6.2368    0.5875    7.9488 H       1  UNL1        0.0000
     31 H          -5.1770    1.1334    9.2712 H       1  UNL1        0.0000
     32 C          -4.1715   -0.6106    6.4509 C.3     1  UNL1        0.0000
     33 H          -3.3104   -0.5404    5.7901 H       1  UNL1        0.0000
     34 H          -5.0819   -0.5321    5.8621 H       1  UNL1        0.0000
     35 H          -4.1502   -1.5777    6.9458 H       1  UNL1        0.0000
     36 C          -1.2648   -2.3348    8.3535 C.3     1  UNL1        0.0000
     37 H          -1.4147   -2.4464    7.2827 H       1  UNL1        0.0000
     38 H          -0.2008   -2.4553    8.5408 H       1  UNL1        0.0000
@<TRIPOS>BOND
     1    33    32    1
     2    34    32    1
     3    27    24    1
     4    26    24    1
     5    32    35    1
     6    32    23    1
     7    24    23    1
     8    24    25    1
     9    37    36    1
    10    23    22    1
    11    23    28    1
    12    30    28    1
    13    22     1    1
    14    36    38    1
    15    36     1    1
    16    36     6    1
    17    28    29    1
    18    28    31    1
    19     7     6    1
    20    17    14    1
    21     1     3    1
    22     1     2    1
    23     6     8    1
    24     6     3    1
    25    15    14    1
    26     5     3    1
    27    14    16    1
    28    14     9    1
    29     3     4    1
    30     2     9    1
    31    11    10    1
    32     9    10    1
    33     9    18    1
    34    21    18    1
    35    10    12    1
    36    10    13    1
    37    18    20    1
    38    18    19    1
