@<TRIPOS>MOLECULE
2,3
 41 41 0 0 0
SMALL
GASTEIGER

@<TRIPOS>ATOM
      1 SI          6.4103    8.6338   20.3455 Si      1  UNL1        0.0000
      2 N           5.8291    7.4199   19.2276 N.3     1  UNL1        0.0000
      3 N           5.2045    8.0468   21.4687 N.3     1  UNL1        0.0000
      4 C           6.4516   10.4402   19.6847 C.3     1  UNL1        0.0000
      5 H           6.5637   10.4486   18.6009 H       1  UNL1        0.0000
      6 H           5.5720   11.0372   19.9144 H       1  UNL1        0.0000
      7 C           7.7019   11.0371   20.3294 C.3     1  UNL1        0.0000
      8 H           8.0409   11.9295   19.7996 H       1  UNL1        0.0000
      9 H           7.4785   11.3249   21.3591 H       1  UNL1        0.0000
     10 C           8.7917    9.9672   20.3437 C.3     1  UNL1        0.0000
     11 H           9.6790   10.3235   20.8711 H       1  UNL1        0.0000
     12 H           9.0816    9.7483   19.3136 H       1  UNL1        0.0000
     13 C           8.2212    8.7058   20.9911 C.3     1  UNL1        0.0000
     14 H           8.2378    8.8150   22.0750 H       1  UNL1        0.0000
     15 H           8.8313    7.8375   20.7533 H       1  UNL1        0.0000
     16 C           6.4243    6.6995   18.1374 C.3     1  UNL1        0.0000
     17 C           7.0575    7.6597   17.1227 C.3     1  UNL1        0.0000
     18 H           7.8554    8.2225   17.5998 H       1  UNL1        0.0000
     19 H           6.3055    8.3578   16.7623 H       1  UNL1        0.0000
     20 H           7.4676    7.1094   16.2796 H       1  UNL1        0.0000
     21 C           7.4860    5.7233   18.6776 C.3     1  UNL1        0.0000
     22 H           8.3369    6.2791   19.0634 H       1  UNL1        0.0000
     23 H           7.8295    5.0528   17.8932 H       1  UNL1        0.0000
     24 H           7.0544    5.1366   19.4938 H       1  UNL1        0.0000
     25 C           5.2907    5.8974   17.4652 C.3     1  UNL1        0.0000
     26 H           5.6612    5.3499   16.6007 H       1  UNL1        0.0000
     27 H           4.5035    6.5834   17.1395 H       1  UNL1        0.0000
     28 H           4.8703    5.1796   18.1851 H       1  UNL1        0.0000
     29 C           4.4946    8.6351   22.5700 C.3     1  UNL1        0.0000
     30 C           5.4675    9.2136   23.6054 C.3     1  UNL1        0.0000
     31 H           6.1437    8.4331   23.9468 H       1  UNL1        0.0000
     32 H           4.9250    9.6149   24.4578 H       1  UNL1        0.0000
     33 H           6.0537   10.0089   23.1528 H       1  UNL1        0.0000
     34 C           3.6574    7.5077   23.2094 C.3     1  UNL1        0.0000
     35 H           3.1216    7.8697   24.0849 H       1  UNL1        0.0000
     36 H           4.3187    6.6905   23.5121 H       1  UNL1        0.0000
     37 H           2.9266    7.1314   22.4782 H       1  UNL1        0.0000
     38 C           3.5506    9.7374   22.0550 C.3     1  UNL1        0.0000
     39 H           4.1303   10.5900   21.7105 H       1  UNL1        0.0000
     40 H           2.8754   10.0661   22.8416 H       1  UNL1        0.0000
     41 H           2.9679    9.3490   21.2148 H       1  UNL1        0.0000
@<TRIPOS>BOND
     1    20    17    1
     2    26    25    1
     3    19    17    1
     4    17    18    1
     5    17    16    1
     6    27    25    1
     7    25    16    1
     8    25    28    1
     9    23    21    1
    10    16    21    1
    11    16     2    1
    12     5     4    1
    13    21    22    1
    14    21    24    1
    15     2     1    1
    16    12    10    1
    17     4     6    1
    18     4     7    1
    19     4     1    1
    20     8     7    1
    21     7    10    1
    22     7     9    1
    23    10    11    1
    24    10    13    1
    25     1    13    1
    26     1     3    1
    27    15    13    1
    28    13    14    1
    29    41    38    1
    30     3    29    1
    31    39    38    1
    32    38    29    1
    33    38    40    1
    34    37    34    1
    35    29    34    1
    36    29    30    1
    37    33    30    1
    38    34    36    1
    39    34    35    1
    40    30    31    1
    41    30    32    1
