@<TRIPOS>MOLECULE
2,3
 39 39 0 0 0
SMALL
GASTEIGER

@<TRIPOS>ATOM
      1 SI          2.0727    4.3082   19.9084 Si      1  UNL1        0.0000
      2 N           1.4750    3.1066   18.7872 N.3     1  UNL1        0.0000
      3 N           0.8806    3.7151   21.0418 N.3     1  UNL1        0.0000
      4 C           3.8969    4.3554   20.5225 C.3     1  UNL1        0.0000
      5 H           3.9924    4.2027   21.5984 H       1  UNL1        0.0000
      6 H           4.5438    3.6141   20.0526 H       1  UNL1        0.0000
      7 C           4.3600    5.7318   20.1600 C.2     1  UNL1        0.0000
      8 H           5.3791    6.0083   20.3921 H       1  UNL1        0.0000
      9 C           3.5220    6.5680   19.5709 C.2     1  UNL1        0.0000
     10 H           3.8127    7.5713   19.2920 H       1  UNL1        0.0000
     11 C           2.1223    6.1263   19.2768 C.3     1  UNL1        0.0000
     12 H           1.9183    6.2193   18.2094 H       1  UNL1        0.0000
     13 H           1.4169    6.7887   19.7796 H       1  UNL1        0.0000
     14 C           2.0514    2.4188   17.6660 C.3     1  UNL1        0.0000
     15 C           2.6432    3.4136   16.6596 C.3     1  UNL1        0.0000
     16 H           3.0589    2.8895   15.8028 H       1  UNL1        0.0000
     17 H           3.4281    3.9952   17.1365 H       1  UNL1        0.0000
     18 H           1.8659    4.0937   16.3188 H       1  UNL1        0.0000
     19 C           3.1403    1.4454   18.1547 C.3     1  UNL1        0.0000
     20 H           2.7441    0.8449   18.9788 H       1  UNL1        0.0000
     21 H           4.0015    2.0027   18.5146 H       1  UNL1        0.0000
     22 H           3.4594    0.7875   17.3495 H       1  UNL1        0.0000
     23 C           0.9116    1.6143   17.0075 C.3     1  UNL1        0.0000
     24 H           1.2659    1.0914   16.1213 H       1  UNL1        0.0000
     25 H           0.1052    2.2943   16.7187 H       1  UNL1        0.0000
     26 H           0.5226    0.8749   17.7233 H       1  UNL1        0.0000
     27 C           0.1849    4.3039   22.1515 C.3     1  UNL1        0.0000
     28 C          -0.8077    5.3647   21.6397 C.3     1  UNL1        0.0000
     29 H          -0.2652    6.2226   21.2504 H       1  UNL1        0.0000
     30 H          -1.4643    5.6976   22.4403 H       1  UNL1        0.0000
     31 H          -1.4084    4.9369   20.8317 H       1  UNL1        0.0000
     32 C           1.1699    4.9354   23.1432 C.3     1  UNL1        0.0000
     33 H           1.7398    5.7172   22.6472 H       1  UNL1        0.0000
     34 H           1.8617    4.1774   23.5034 H       1  UNL1        0.0000
     35 H           0.6390    5.3641   23.9893 H       1  UNL1        0.0000
     36 C          -0.5988    3.1651   22.8364 C.3     1  UNL1        0.0000
     37 H           0.0959    2.3775   23.1419 H       1  UNL1        0.0000
     38 H          -1.3319    2.7470   22.1306 H       1  UNL1        0.0000
     39 H          -1.1269    3.5299   23.7154 H       1  UNL1        0.0000
@<TRIPOS>BOND
     1    16    15    1
     2    24    23    1
     3    18    15    1
     4    15    17    1
     5    15    14    1
     6    25    23    1
     7    23    14    1
     8    23    26    1
     9    22    19    1
    10    14    19    1
    11    14     2    1
    12    19    21    1
    13    19    20    1
    14    12    11    1
    15     2     1    1
    16    11     9    1
    17    11    13    1
    18    11     1    1
    19    10     9    1
    20     9     7    2
    21     1     4    1
    22     1     3    1
    23     6     4    1
    24     7     8    1
    25     7     4    1
    26     4     5    1
    27    31    28    1
    28     3    27    1
    29    29    28    1
    30    28    27    1
    31    28    30    1
    32    38    36    1
    33    27    36    1
    34    27    32    1
    35    33    32    1
    36    36    37    1
    37    36    39    1
    38    32    34    1
    39    32    35    1
