@<TRIPOS>MOLECULE
2,3
 44 44 0 0 0
SMALL
GASTEIGER

@<TRIPOS>ATOM
      1 SI          0.3129   -0.2555   -1.1034 Si      1  UNL1        0.0000
      2 N           1.3807    0.9651   -0.4356 N.3     1  UNL1        0.0000
      3 N           0.3499   -1.0193    0.4717 N.3     1  UNL1        0.0000
      4 C           0.9496   -1.3464   -2.5462 C.3     1  UNL1        0.0000
      5 H           1.4367   -0.7160   -3.2915 H       1  UNL1        0.0000
      6 H           1.6963   -2.0645   -2.2025 H       1  UNL1        0.0000
      7 C          -0.1950   -2.0905   -3.2311 C.3     1  UNL1        0.0000
      8 H           0.1947   -2.6306   -4.0991 H       1  UNL1        0.0000
      9 H          -0.6087   -2.8326   -2.5468 H       1  UNL1        0.0000
     10 C          -1.3144   -1.1617   -3.6958 C.3     1  UNL1        0.0000
     11 H          -0.8876   -0.3571   -4.2988 H       1  UNL1        0.0000
     12 H          -1.9936   -1.7301   -4.3365 H       1  UNL1        0.0000
     13 C          -2.1193   -0.5535   -2.5493 C.3     1  UNL1        0.0000
     14 H          -2.4405   -1.3533   -1.8780 H       1  UNL1        0.0000
     15 H          -3.0223   -0.0916   -2.9596 H       1  UNL1        0.0000
     16 C          -1.3249    0.4893   -1.7668 C.3     1  UNL1        0.0000
     17 H          -1.9375    0.8922   -0.9583 H       1  UNL1        0.0000
     18 H          -1.1054    1.3241   -2.4338 H       1  UNL1        0.0000
     19 C           2.3817    1.8216   -1.0031 C.3     1  UNL1        0.0000
     20 C           1.8251    2.6051   -2.1991 C.3     1  UNL1        0.0000
     21 H           1.5307    1.9161   -2.9861 H       1  UNL1        0.0000
     22 H           2.5741    3.2894   -2.5893 H       1  UNL1        0.0000
     23 H           0.9506    3.1715   -1.8875 H       1  UNL1        0.0000
     24 C           3.5991    0.9831   -1.4374 C.3     1  UNL1        0.0000
     25 H           3.9161    0.3499   -0.6040 H       1  UNL1        0.0000
     26 H           4.4241    1.6260   -1.7358 H       1  UNL1        0.0000
     27 H           3.3295    0.3417   -2.2725 H       1  UNL1        0.0000
     28 C           2.8124    2.8028    0.1074 C.3     1  UNL1        0.0000
     29 H           1.9385    3.3563    0.4619 H       1  UNL1        0.0000
     30 H           3.5520    3.5101   -0.2631 H       1  UNL1        0.0000
     31 H           3.2485    2.2412    0.9463 H       1  UNL1        0.0000
     32 C          -0.5424   -1.8583    1.2250 C.3     1  UNL1        0.0000
     33 C           0.1693   -2.1772    2.5572 C.3     1  UNL1        0.0000
     34 H           1.1310   -2.6567    2.3508 H       1  UNL1        0.0000
     35 H          -0.4335   -2.8480    3.1671 H       1  UNL1        0.0000
     36 H           0.3383   -1.2470    3.1201 H       1  UNL1        0.0000
     37 C          -1.8533   -1.1070    1.5219 C.3     1  UNL1        0.0000
     38 H          -1.6187   -0.1270    1.9469 H       1  UNL1        0.0000
     39 H          -2.4673   -1.6667    2.2240 H       1  UNL1        0.0000
     40 H          -2.4153   -0.9614    0.6028 H       1  UNL1        0.0000
     41 C          -0.8389   -3.1654    0.4784 C.3     1  UNL1        0.0000
     42 H          -1.3814   -2.9511   -0.4382 H       1  UNL1        0.0000
     43 H          -1.4394   -3.8304    1.0940 H       1  UNL1        0.0000
     44 H           0.0954   -3.6601    0.2221 H       1  UNL1        0.0000
@<TRIPOS>BOND
     1    12    10    1
     2    11    10    1
     3     8     7    1
     4    10     7    1
     5    10    13    1
     6     5     4    1
     7     7     9    1
     8     7     4    1
     9    21    20    1
    10    15    13    1
    11    22    20    1
    12    13    14    1
    13    13    16    1
    14     4     6    1
    15     4     1    1
    16    18    16    1
    17    27    24    1
    18    20    23    1
    19    20    19    1
    20    16     1    1
    21    16    17    1
    22    26    24    1
    23    24    19    1
    24    24    25    1
    25     1     2    1
    26     1     3    1
    27    19     2    1
    28    19    28    1
    29    42    41    1
    30    30    28    1
    31    28    29    1
    32    28    31    1
    33    44    41    1
    34     3    32    1
    35    41    43    1
    36    41    32    1
    37    40    37    1
    38    32    37    1
    39    32    33    1
    40    37    38    1
    41    37    39    1
    42    34    33    1
    43    33    36    1
    44    33    35    1
