@<TRIPOS>MOLECULE
3,4
 49 50 0 0 0
SMALL
GASTEIGER

@<TRIPOS>ATOM
      1 SI         -1.0425    8.1085    7.2915 Si      1  UNL1        0.0000
      2 O           2.6544    6.5979    8.7748 O.3     1  UNL1        0.0000
      3 N           0.6347    9.1593   10.9419 N.pl3   1  UNL1        0.0000
      4 N           1.5152    8.9175    8.1442 N.pl3   1  UNL1        0.0000
      5 C           0.4942    8.6374   12.1550 C.3     1  UNL1        0.0000
      6 H           1.3722    8.1618   12.5680 H       1  UNL1        0.0000
      7 C          -0.6913    8.6934   12.8673 C.2     1  UNL1        0.0000
      8 H          -0.7567    8.2513   13.8483 H       1  UNL1        0.0000
      9 C          -1.7778    9.3341   12.2923 C.2     1  UNL1        0.0000
     10 H          -2.7185    9.4085   12.8177 H       1  UNL1        0.0000
     11 C          -1.6311    9.8817   11.0303 C.2     1  UNL1        0.0000
     12 H          -2.4495   10.4000   10.5550 H       1  UNL1        0.0000
     13 C          -0.4059    9.7736   10.3811 C.2     1  UNL1        0.0000
     14 C          -0.1950   10.3353    9.0046 C.3     1  UNL1        0.0000
     15 H           0.6050   11.0801    9.0698 H       1  UNL1        0.0000
     16 H          -1.1088   10.7992    8.6412 H       1  UNL1        0.0000
     17 C           0.2616    9.2516    8.0673 C.3     1  UNL1        0.0000
     18 C          -2.7427    8.9697    7.3757 C.3     1  UNL1        0.0000
     19 H          -2.7398    9.9269    6.8637 H       1  UNL1        0.0000
     20 H          -3.0646    9.1364    8.3981 H       1  UNL1        0.0000
     21 H          -3.4962    8.3521    6.8978 H       1  UNL1        0.0000
     22 C          -0.7646    7.5524    5.4885 C.3     1  UNL1        0.0000
     23 H          -1.6407    7.0175    5.1329 H       1  UNL1        0.0000
     24 H           0.0876    6.8880    5.3924 H       1  UNL1        0.0000
     25 H          -0.6036    8.3921    4.8207 H       1  UNL1        0.0000
     26 C          -1.0438    6.5650    8.4235 C.3     1  UNL1        0.0000
     27 H          -1.7110    5.7899    8.0588 H       1  UNL1        0.0000
     28 H          -1.3505    6.8187    9.4349 H       1  UNL1        0.0000
     29 H          -0.0454    6.1423    8.4855 H       1  UNL1        0.0000
     30 C           2.1124    8.1550    7.1329 C.ar    1  UNL1        0.0000
     31 C           2.1641    8.6305    5.8300 C.ar    1  UNL1        0.0000
     32 H           1.7248    9.5929    5.6179 H       1  UNL1        0.0000
     33 C           2.7788    7.8879    4.8363 C.ar    1  UNL1        0.0000
     34 H           2.8213    8.2697    3.8284 H       1  UNL1        0.0000
     35 C           3.3282    6.6578    5.1403 C.ar    1  UNL1        0.0000
     36 H           3.7985    6.0663    4.3698 H       1  UNL1        0.0000
     37 C           3.3011    6.1726    6.4416 C.ar    1  UNL1        0.0000
     38 H           3.7526    5.2164    6.6524 H       1  UNL1        0.0000
     39 C           2.7219    6.9246    7.4493 C.ar    1  UNL1        0.0000
     40 C           3.1215    5.3280    9.2350 C.3     1  UNL1        0.0000
     41 H           2.8423    4.5610    8.4971 H       1  UNL1        0.0000
     42 C           4.6334    5.3535    9.4399 C.3     1  UNL1        0.0000
     43 H           5.1510    5.5979    8.5152 H       1  UNL1        0.0000
     44 H           4.9768    4.3842    9.7904 H       1  UNL1        0.0000
     45 H           4.8764    6.1087   10.1836 H       1  UNL1        0.0000
     46 C           2.3934    5.0584   10.5469 C.3     1  UNL1        0.0000
     47 H           2.6409    5.8435   11.2562 H       1  UNL1        0.0000
     48 H           2.6988    4.0975   10.9502 H       1  UNL1        0.0000
     49 H           1.3173    5.0529   10.3900 H       1  UNL1        0.0000
@<TRIPOS>BOND
     1    34    33    1
     2    36    35    1
     3    25    22    1
     4    33    35   ar
     5    33    31   ar
     6    23    22    1
     7    35    37   ar
     8    24    22    1
     9    22     1    1
    10    32    31    1
    11    31    30   ar
    12    37    38    1
    13    37    39   ar
    14    19    18    1
    15    21    18    1
    16    30    39   ar
    17    30     4    1
    18     1    18    1
    19     1    17    1
    20     1    26    1
    21    18    20    1
    22    39     2    1
    23    27    26    1
    24    17     4    1
    25    17    14    1
    26    26    29    1
    27    26    28    1
    28    41    40    1
    29    43    42    1
    30    16    14    1
    31     2    40    1
    32    14    15    1
    33    14    13    1
    34    40    42    1
    35    40    46    1
    36    42    44    1
    37    42    45    1
    38    13     3    1
    39    13    11    2
    40    49    46    1
    41    46    48    1
    42    46    47    1
    43    12    11    1
    44     3     5    1
    45    11     9    1
    46     5     6    1
    47     5     7    1
    48     9    10    1
    49     9     7    2
    50     7     8    1
