@<TRIPOS>MOLECULE
1,2
 46 47 0 0 0
SMALL
GASTEIGER

@<TRIPOS>ATOM
      1 N          -1.1691    4.5560    4.5080 N.3     1  UNL1       -0.2065
      2 N           1.0337    4.4208    4.8035 N.3     1  UNL1       -0.2065
      3 P          -0.1303    7.0145    5.3687 P.3     1  UNL1       -0.0005
      4 C          -0.0464    5.1677    4.8643 C.3     1  UNL1        0.1683
      5 C           1.2974    7.8375    4.5522 C.ar    1  UNL1       -0.0158
      6 C           2.4670    8.2682    5.1747 C.ar    1  UNL1       -0.0537
      7 H           2.6442    8.0529    6.2193 H       1  UNL1        0.0624
      8 C           3.4209    8.9687    4.4608 C.ar    1  UNL1       -0.0612
      9 H           4.3264    9.2900    4.9556 H       1  UNL1        0.0618
     10 C           3.2254    9.2586    3.1203 C.ar    1  UNL1       -0.0617
     11 H           3.9780    9.8006    2.5669 H       1  UNL1        0.0618
     12 C           2.0538    8.8603    2.4991 C.ar    1  UNL1       -0.0612
     13 H           1.8844    9.0955    1.4582 H       1  UNL1        0.0618
     14 C           1.0929    8.1709    3.2139 C.ar    1  UNL1       -0.0537
     15 H           0.1700    7.8802    2.7322 H       1  UNL1        0.0624
     16 C           0.3372    6.9492    7.1308 C.ar    1  UNL1       -0.0158
     17 C           0.6121    8.1527    7.7817 C.ar    1  UNL1       -0.0537
     18 H           0.6651    9.0682    7.2073 H       1  UNL1        0.0624
     19 C           0.8064    8.1829    9.1486 C.ar    1  UNL1       -0.0612
     20 H           1.0376    9.1177    9.6392 H       1  UNL1        0.0618
     21 C           0.6826    7.0195    9.8913 C.ar    1  UNL1       -0.0617
     22 H           0.8210    7.0437   10.9623 H       1  UNL1        0.0618
     23 C           0.3640    5.8296    9.2582 C.ar    1  UNL1       -0.0612
     24 H           0.2401    4.9296    9.8417 H       1  UNL1        0.0618
     25 C           0.1954    5.7877    7.8857 C.ar    1  UNL1       -0.0537
     26 H          -0.0453    4.8547    7.3912 H       1  UNL1        0.0624
     27 C          -2.4840    5.1834    4.4030 C.3     1  UNL1        0.0223
     28 H          -3.1305    4.3707    4.0455 H       1  UNL1        0.0472
     29 C          -3.0667    5.6588    5.7427 C.3     1  UNL1       -0.0483
     30 H          -3.1364    4.8301    6.4415 H       1  UNL1        0.0245
     31 H          -4.0653    6.0572    5.5754 H       1  UNL1        0.0245
     32 H          -2.4566    6.4411    6.1910 H       1  UNL1        0.0245
     33 C          -2.5551    6.3134    3.3611 C.3     1  UNL1       -0.0483
     34 H          -1.9581    6.0557    2.4897 H       1  UNL1        0.0245
     35 H          -2.1965    7.2554    3.7698 H       1  UNL1        0.0245
     36 H          -3.5877    6.4528    3.0477 H       1  UNL1        0.0245
     37 C           2.3162    4.9134    5.2594 C.3     1  UNL1        0.0223
     38 H           2.1765    5.8805    5.7615 H       1  UNL1        0.0472
     39 C           2.9499    3.9616    6.2815 C.3     1  UNL1       -0.0483
     40 H           2.1832    3.5369    6.9217 H       1  UNL1        0.0245
     41 H           3.6692    4.5034    6.8925 H       1  UNL1        0.0245
     42 H           3.4698    3.1502    5.7786 H       1  UNL1        0.0245
     43 C           3.2722    5.0957    4.0782 C.3     1  UNL1       -0.0483
     44 H           2.9227    5.8740    3.4062 H       1  UNL1        0.0245
     45 H           3.3272    4.1596    3.5254 H       1  UNL1        0.0245
     46 H           4.2637    5.3653    4.4364 H       1  UNL1        0.0245
@<TRIPOS>BOND
     1    13    12    1
     2    34    33    1
     3    12    10   ar
     4    12    14   ar
     5    11    10    1
     6    15    14    1
     7    36    33    1
     8    10     8   ar
     9    14     5   ar
    10    33    35    1
    11    33    27    1
    12    44    43    1
    13    45    43    1
    14    28    27    1
    15    43    46    1
    16    43    37    1
    17    27     1    1
    18    27    29    1
    19     8     9    1
    20     8     6   ar
    21     1     4    1
    22     5     6   ar
    23     5     3    1
    24     2     4    1
    25     2    37    1
    26     4     3    1
    27     6     7    1
    28    37    38    1
    29    37    39    1
    30     3    16    1
    31    31    29    1
    32    29    32    1
    33    29    30    1
    34    42    39    1
    35    39    41    1
    36    39    40    1
    37    16    17   ar
    38    16    25   ar
    39    18    17    1
    40    26    25    1
    41    17    19   ar
    42    25    23   ar
    43    19    20    1
    44    19    21   ar
    45    23    24    1
    46    23    21   ar
    47    21    22    1
