@<TRIPOS>MOLECULE
2,3
 27 27 0 0 0
SMALL
GASTEIGER

@<TRIPOS>ATOM
      1 SI          8.1729    7.7172    2.8673 Si      1  UNL1        0.0000
      2 N           5.4823    5.4387    1.1203 N.pl3   1  UNL1        0.0000
      3 N           7.1171    6.5360    2.1975 N.3     1  UNL1        0.0000
      4 C           6.1943    6.5987    1.2444 C.3     1  UNL1        0.0000
      5 C           5.9093    7.6990    0.3997 C.2     1  UNL1        0.0000
      6 H           6.4845    8.6026    0.5117 H       1  UNL1        0.0000
      7 C           4.9256    7.5744   -0.5454 C.2     1  UNL1        0.0000
      8 H           4.6967    8.3994   -1.2052 H       1  UNL1        0.0000
      9 C           4.2147    6.3771   -0.6601 C.2     1  UNL1        0.0000
     10 H           3.4381    6.2672   -1.3998 H       1  UNL1        0.0000
     11 C           4.5272    5.3337    0.1933 C.2     1  UNL1        0.0000
     12 C           3.8038    4.0202    0.1292 C.3     1  UNL1        0.0000
     13 H           4.4350    3.2802   -0.3644 H       1  UNL1        0.0000
     14 H           2.8732    4.1144   -0.4253 H       1  UNL1        0.0000
     15 H           3.5979    3.6572    1.1363 H       1  UNL1        0.0000
     16 C           9.7666    7.9503    1.8309 C.3     1  UNL1        0.0000
     17 H          10.3158    7.0153    1.7688 H       1  UNL1        0.0000
     18 H          10.4189    8.6942    2.2768 H       1  UNL1        0.0000
     19 H           9.5427    8.2736    0.8177 H       1  UNL1        0.0000
     20 C           7.3591    9.4436    3.0976 C.3     1  UNL1        0.0000
     21 H           6.3189    9.3658    3.3994 H       1  UNL1        0.0000
     22 H           7.3956   10.0355    2.1891 H       1  UNL1        0.0000
     23 H           7.8804   10.0037    3.8660 H       1  UNL1        0.0000
     24 C           8.5465    7.0326    4.6147 C.3     1  UNL1        0.0000
     25 H           7.7117    7.1908    5.2942 H       1  UNL1        0.0000
     26 H           9.4152    7.5168    5.0484 H       1  UNL1        0.0000
     27 H           8.7501    5.9628    4.5686 H       1  UNL1        0.0000
@<TRIPOS>BOND
     1    10     9    1
     2     8     7    1
     3     9     7    1
     4     9    11    2
     5     7     5    2
     6    14    12    1
     7    13    12    1
     8    12    11    1
     9    12    15    1
    10    11     2    1
    11     5     6    1
    12     5     4    1
    13    19    16    1
    14     2     4    1
    15     4     3    1
    16    17    16    1
    17    16    18    1
    18    16     1    1
    19    22    20    1
    20     3     1    1
    21     1    20    1
    22     1    24    1
    23    20    21    1
    24    20    23    1
    25    27    24    1
    26    24    26    1
    27    24    25    1
