@<TRIPOS>MOLECULE
1,14
 27 27 0 0 0
SMALL
GASTEIGER

@<TRIPOS>ATOM
      1 N          -1.1605   14.2323    9.5066 N.pl3   1  UNL1        0.0000
      2 C          -0.4178   15.3633    9.4004 C.3     1  UNL1        0.0000
      3 C          -0.6201   16.4394   10.2954 C.2     1  UNL1        0.0000
      4 H          -0.0081   17.3212   10.2075 H       1  UNL1        0.0000
      5 C          -1.5772   16.3130   11.2688 C.2     1  UNL1        0.0000
      6 H          -1.7511   17.1175   11.9695 H       1  UNL1        0.0000
      7 C          -2.3289   15.1402   11.3587 C.2     1  UNL1        0.0000
      8 H          -3.0891   15.0328   12.1159 H       1  UNL1        0.0000
      9 C          -2.0848   14.1153   10.4592 C.2     1  UNL1        0.0000
     10 C          -2.8655   12.8360   10.5092 C.3     1  UNL1        0.0000
     11 H          -3.1407   12.5248    9.5026 H       1  UNL1        0.0000
     12 H          -3.7614   12.9530   11.1147 H       1  UNL1        0.0000
     13 H          -2.2494   12.0462   10.9401 H       1  UNL1        0.0000
     14 N           0.4594   15.2842    8.4052 N.3     1  UNL1        0.0000
     15 SI          1.4679   16.5228    7.7338 Si      1  UNL1        0.0000
     16 C           3.0005   16.8787    8.8263 C.3     1  UNL1        0.0000
     17 H           3.6234   15.9919    8.8992 H       1  UNL1        0.0000
     18 H           2.7224   17.1726    9.8349 H       1  UNL1        0.0000
     19 H           3.6020   17.6775    8.4045 H       1  UNL1        0.0000
     20 C           0.4995   18.1624    7.4672 C.3     1  UNL1        0.0000
     21 H           0.3199   18.7023    8.3906 H       1  UNL1        0.0000
     22 H          -0.4621   17.9893    6.9930 H       1  UNL1        0.0000
     23 H           1.0681   18.8190    6.8173 H       1  UNL1        0.0000
     24 C           1.9739   15.9218    5.9930 C.3     1  UNL1        0.0000
     25 H           2.2817   14.8798    6.0172 H       1  UNL1        0.0000
     26 H           2.8059   16.5050    5.6123 H       1  UNL1        0.0000
     27 H           1.1547   16.0167    5.2842 H       1  UNL1        0.0000
@<TRIPOS>BOND
     1    27    24    1
     2    26    24    1
     3    24    25    1
     4    24    15    1
     5    23    20    1
     6    22    20    1
     7    20    15    1
     8    20    21    1
     9    15    14    1
    10    15    16    1
    11    19    16    1
    12    14     2    1
    13    16    17    1
    14    16    18    1
    15     2     1    1
    16     2     3    1
    17    11    10    1
    18     1     9    1
    19     4     3    1
    20     3     5    2
    21     9    10    1
    22     9     7    2
    23    10    13    1
    24    10    12    1
    25     5     7    1
    26     5     6    1
    27     7     8    1
