@<TRIPOS>MOLECULE
1,14
 27 27 0 0 0
SMALL
GASTEIGER

@<TRIPOS>ATOM
      1 N          -1.0299   11.5678    8.1728 N.pl3   1  UNL1        0.0000
      2 C          -0.3021   11.1530    9.2406 C.3     1  UNL1        0.0000
      3 C          -0.4039    9.8201    9.7022 C.2     1  UNL1        0.0000
      4 H           0.2009    9.5016   10.5348 H       1  UNL1        0.0000
      5 C          -1.2521    8.9624    9.0507 C.2     1  UNL1        0.0000
      6 H          -1.3473    7.9367    9.3785 H       1  UNL1        0.0000
      7 C          -1.9932    9.4126    7.9568 C.2     1  UNL1        0.0000
      8 H          -2.6694    8.7488    7.4419 H       1  UNL1        0.0000
      9 C          -1.8471   10.7260    7.5414 C.2     1  UNL1        0.0000
     10 C          -2.6199   11.2614    6.3729 C.3     1  UNL1        0.0000
     11 H          -2.9926   12.2601    6.5953 H       1  UNL1        0.0000
     12 H          -3.4518   10.6056    6.1263 H       1  UNL1        0.0000
     13 H          -1.9646   11.3411    5.5050 H       1  UNL1        0.0000
     14 N           0.4632   12.1269    9.7225 N.3     1  UNL1        0.0000
     15 SI          1.3706   12.1762   11.1974 Si      1  UNL1        0.0000
     16 C           1.7418   14.0163   11.5481 C.3     1  UNL1        0.0000
     17 H           0.8574   14.5422   11.8999 H       1  UNL1        0.0000
     18 H           2.0984   14.5165   10.6518 H       1  UNL1        0.0000
     19 H           2.5069   14.1157   12.3109 H       1  UNL1        0.0000
     20 C           0.3224   11.5567   12.6857 C.3     1  UNL1        0.0000
     21 H          -0.5691   12.1627   12.8202 H       1  UNL1        0.0000
     22 H           0.9042   11.6295   13.5983 H       1  UNL1        0.0000
     23 H           0.0061   10.5241   12.5855 H       1  UNL1        0.0000
     24 C           2.9853   11.1519   11.0833 C.3     1  UNL1        0.0000
     25 H           2.7928   10.1078   10.8515 H       1  UNL1        0.0000
     26 H           3.5354   11.1858   12.0181 H       1  UNL1        0.0000
     27 H           3.6260   11.5520   10.3025 H       1  UNL1        0.0000
@<TRIPOS>BOND
     1    13    10    1
     2    12    10    1
     3    10    11    1
     4    10     9    1
     5     8     7    1
     6     9     7    2
     7     9     1    1
     8     7     5    1
     9     1     2    1
    10     5     6    1
    11     5     3    2
    12     2     3    1
    13     2    14    1
    14     3     4    1
    15    14    15    1
    16    27    24    1
    17    18    16    1
    18    25    24    1
    19    24    15    1
    20    24    26    1
    21    15    16    1
    22    15    20    1
    23    16    17    1
    24    16    19    1
    25    23    20    1
    26    20    21    1
    27    20    22    1
