@<TRIPOS>MOLECULE
2,4
 27 27 0 0 0
SMALL
GASTEIGER

@<TRIPOS>ATOM
      1 SI          8.3928    2.5244    5.1170 Si      1  UNL1        0.0000
      2 N           5.6522    5.2208    4.2768 N.pl3   1  UNL1        0.0000
      3 C           6.4475    4.5297    5.1475 C.3     1  UNL1        0.0000
      4 N           7.2934    3.7109    4.5327 N.3     1  UNL1        0.0000
      5 C           6.3143    4.7321    6.5427 C.2     1  UNL1        0.0000
      6 H           6.9547    4.1814    7.2110 H       1  UNL1        0.0000
      7 C           5.3910    5.6357    6.9987 C.2     1  UNL1        0.0000
      8 H           5.2788    5.8117    8.0593 H       1  UNL1        0.0000
      9 C           4.5908    6.3343    6.0914 C.2     1  UNL1        0.0000
     10 H           3.8591    7.0463    6.4376 H       1  UNL1        0.0000
     11 C           4.7559    6.0962    4.7382 C.2     1  UNL1        0.0000
     12 C           3.9281    6.8083    3.7084 C.3     1  UNL1        0.0000
     13 H           4.5171    7.6064    3.2547 H       1  UNL1        0.0000
     14 H           3.0371    7.2415    4.1567 H       1  UNL1        0.0000
     15 H           3.6431    6.1176    2.9147 H       1  UNL1        0.0000
     16 C          10.0587    3.2829    5.6807 C.3     1  UNL1        0.0000
     17 H           9.9203    4.0029    6.4831 H       1  UNL1        0.0000
     18 H          10.5384    3.7956    4.8520 H       1  UNL1        0.0000
     19 H          10.7378    2.5166    6.0401 H       1  UNL1        0.0000
     20 C           7.6997    1.4686    6.5662 C.3     1  UNL1        0.0000
     21 H           6.6556    1.2100    6.4167 H       1  UNL1        0.0000
     22 H           7.7799    1.9786    7.5203 H       1  UNL1        0.0000
     23 H           8.2560    0.5413    6.6506 H       1  UNL1        0.0000
     24 C           8.6044    1.3459    3.6242 C.3     1  UNL1        0.0000
     25 H           7.7455    0.6879    3.5092 H       1  UNL1        0.0000
     26 H           9.4812    0.7178    3.7417 H       1  UNL1        0.0000
     27 H           8.7236    1.9151    2.7023 H       1  UNL1        0.0000
@<TRIPOS>BOND
     1    27    24    1
     2    15    12    1
     3    13    12    1
     4    25    24    1
     5    24    26    1
     6    24     1    1
     7    12    14    1
     8    12    11    1
     9     2    11    1
    10     2     3    1
    11     4     1    1
    12     4     3    1
    13    11     9    2
    14    18    16    1
    15     1    16    1
    16     1    20    1
    17     3     5    1
    18    16    19    1
    19    16    17    1
    20     9    10    1
    21     9     7    1
    22    21    20    1
    23     5     7    2
    24     5     6    1
    25    20    23    1
    26    20    22    1
    27     7     8    1
