@<TRIPOS>MOLECULE
1,14
 27 27 0 0 0
SMALL
GASTEIGER

@<TRIPOS>ATOM
      1 N          -1.0157   14.0625    6.5434 N.pl3   1  UNL1        0.0000
      2 C          -0.1854   13.4110    5.6901 C.3     1  UNL1        0.0000
      3 C          -0.2354   13.6741    4.3014 C.2     1  UNL1        0.0000
      4 H           0.4497   13.1672    3.6426 H       1  UNL1        0.0000
      5 C          -1.1396   14.5952    3.8394 C.2     1  UNL1        0.0000
      6 H          -1.1977   14.8197    2.7836 H       1  UNL1        0.0000
      7 C          -1.9879   15.2483    4.7352 C.2     1  UNL1        0.0000
      8 H          -2.7092   15.9679    4.3820 H       1  UNL1        0.0000
      9 C          -1.8889   14.9591    6.0862 C.2     1  UNL1        0.0000
     10 C          -2.7786   15.6301    7.0902 C.3     1  UNL1        0.0000
     11 H          -3.1343   14.9049    7.8199 H       1  UNL1        0.0000
     12 H          -3.6262   16.1029    6.6004 H       1  UNL1        0.0000
     13 H          -2.2159   16.3907    7.6316 H       1  UNL1        0.0000
     14 N           0.6189   12.5696    6.3318 N.3     1  UNL1        0.0000
     15 SI          1.6615   11.3469    5.6840 Si      1  UNL1        0.0000
     16 C           3.2625   12.0876    4.9368 C.3     1  UNL1        0.0000
     17 H           3.0541   12.7929    4.1369 H       1  UNL1        0.0000
     18 H           3.8992   11.3082    4.5307 H       1  UNL1        0.0000
     19 H           3.8239   12.6128    5.7043 H       1  UNL1        0.0000
     20 C           0.7603   10.2941    4.3510 C.3     1  UNL1        0.0000
     21 H          -0.1146    9.7999    4.7637 H       1  UNL1        0.0000
     22 H           1.4263    9.5205    3.9841 H       1  UNL1        0.0000
     23 H           0.4364   10.8750    3.4941 H       1  UNL1        0.0000
     24 C           2.0597   10.1471    7.1154 C.3     1  UNL1        0.0000
     25 H           1.2145    9.5020    7.3428 H       1  UNL1        0.0000
     26 H           2.3211   10.6928    8.0179 H       1  UNL1        0.0000
     27 H           2.8987    9.5089    6.8586 H       1  UNL1        0.0000
@<TRIPOS>BOND
     1     6     5    1
     2    23    20    1
     3     4     3    1
     4     5     3    2
     5     5     7    1
     6    22    20    1
     7    17    16    1
     8     3     2    1
     9    20    21    1
    10    20    15    1
    11     8     7    1
    12    18    16    1
    13     7     9    2
    14    16    15    1
    15    16    19    1
    16    15    14    1
    17    15    24    1
    18     2    14    1
    19     2     1    1
    20     9     1    1
    21     9    10    1
    22    12    10    1
    23    27    24    1
    24    10    13    1
    25    10    11    1
    26    24    25    1
    27    24    26    1
