@<TRIPOS>MOLECULE
2,3
 27 27 0 0 0
SMALL
GASTEIGER

@<TRIPOS>ATOM
      1 SI          8.0773    3.1648   -0.5045 Si      1  UNL1        0.0000
      2 N           5.6126    2.5860    2.5085 N.pl3   1  UNL1        0.0000
      3 N           7.1116    3.0925    0.9167 N.3     1  UNL1        0.0000
      4 C           6.2938    2.1647    1.4010 C.3     1  UNL1        0.0000
      5 C           6.0864    0.8582    0.8958 C.2     1  UNL1        0.0000
      6 H           6.6361    0.5447    0.0242 H       1  UNL1        0.0000
      7 C           5.2099    0.0266    1.5416 C.2     1  UNL1        0.0000
      8 H           5.0429   -0.9774    1.1778 H       1  UNL1        0.0000
      9 C           4.5286    0.4753    2.6758 C.2     1  UNL1        0.0000
     10 H           3.8356   -0.1693    3.1921 H       1  UNL1        0.0000
     11 C           4.7610    1.7632    3.1253 C.2     1  UNL1        0.0000
     12 C           4.0608    2.3132    4.3336 C.3     1  UNL1        0.0000
     13 H           3.1913    1.7115    4.5874 H       1  UNL1        0.0000
     14 H           3.7556    3.3438    4.1520 H       1  UNL1        0.0000
     15 H           4.7461    2.3179    5.1821 H       1  UNL1        0.0000
     16 C           8.2921    5.0440   -0.7949 C.3     1  UNL1        0.0000
     17 H           7.3940    5.4894   -1.2180 H       1  UNL1        0.0000
     18 H           9.1082    5.2440   -1.4813 H       1  UNL1        0.0000
     19 H           8.5145    5.5520    0.1435 H       1  UNL1        0.0000
     20 C           7.2166    2.4509   -2.0679 C.3     1  UNL1        0.0000
     21 H           6.1688    2.7315   -2.1190 H       1  UNL1        0.0000
     22 H           7.2703    1.3680   -2.1068 H       1  UNL1        0.0000
     23 H           7.6987    2.8280   -2.9634 H       1  UNL1        0.0000
     24 C           9.7587    2.2709   -0.2978 C.3     1  UNL1        0.0000
     25 H          10.3283    2.7218    0.5096 H       1  UNL1        0.0000
     26 H          10.3514    2.3362   -1.2045 H       1  UNL1        0.0000
     27 H           9.6272    1.2174   -0.0655 H       1  UNL1        0.0000
@<TRIPOS>BOND
     1    23    20    1
     2    21    20    1
     3    22    20    1
     4    20     1    1
     5    18    16    1
     6    17    16    1
     7    26    24    1
     8    16     1    1
     9    16    19    1
    10     1    24    1
    11     1     3    1
    12    24    27    1
    13    24    25    1
    14     6     5    1
    15     5     4    1
    16     5     7    2
    17     3     4    1
    18     8     7    1
    19     4     2    1
    20     7     9    1
    21     2    11    1
    22     9    11    2
    23     9    10    1
    24    11    12    1
    25    14    12    1
    26    12    13    1
    27    12    15    1
