@<TRIPOS>MOLECULE
2,3
 44 45 0 0 0
SMALL
GASTEIGER

@<TRIPOS>ATOM
      1 SI          0.4777    0.2511    6.4688 Si      1  UNL1        0.0000
      2 N           2.3365    2.0900    3.6673 N.pl3   1  UNL1        0.0000
      3 N           1.5213    1.1876    5.4634 N.3     1  UNL1        0.0000
      4 C           1.8559    0.9924    4.1984 C.3     1  UNL1        0.0000
      5 C           1.6630   -0.2726    3.4579 C.ar    1  UNL1        0.0000
      6 C           0.9786   -0.2935    2.2471 C.ar    1  UNL1        0.0000
      7 H           0.5737    0.6220    1.8430 H       1  UNL1        0.0000
      8 C           0.8038   -1.4856    1.5682 C.ar    1  UNL1        0.0000
      9 H           0.2647   -1.4954    0.6323 H       1  UNL1        0.0000
     10 C           1.3168   -2.6640    2.0845 C.ar    1  UNL1        0.0000
     11 H           1.1792   -3.5936    1.5519 H       1  UNL1        0.0000
     12 C           2.0091   -2.6470    3.2845 C.ar    1  UNL1        0.0000
     13 H           2.4172   -3.5635    3.6857 H       1  UNL1        0.0000
     14 C           2.1818   -1.4582    3.9686 C.ar    1  UNL1        0.0000
     15 H           2.7328   -1.4329    4.8957 H       1  UNL1        0.0000
     16 C           2.6816    2.2504    2.3321 C.ar    1  UNL1        0.0000
     17 C           3.7618    1.5764    1.7483 C.ar    1  UNL1        0.0000
     18 C           4.0665    1.8227    0.4167 C.ar    1  UNL1        0.0000
     19 H           4.8973    1.2992   -0.0349 H       1  UNL1        0.0000
     20 C           3.3333    2.7237   -0.3311 C.ar    1  UNL1        0.0000
     21 H           3.5856    2.9033   -1.3655 H       1  UNL1        0.0000
     22 C           2.2763    3.4015    0.2546 C.ar    1  UNL1        0.0000
     23 H           1.7034    4.1105   -0.3267 H       1  UNL1        0.0000
     24 C           1.9414    3.1778    1.5778 C.ar    1  UNL1        0.0000
     25 C           0.7844    3.8839    2.2211 C.3     1  UNL1        0.0000
     26 H           0.4216    4.6924    1.5913 H       1  UNL1        0.0000
     27 H           1.0798    4.2917    3.1953 H       1  UNL1        0.0000
     28 H          -0.0366    3.1861    2.3937 H       1  UNL1        0.0000
     29 C           4.5959    0.6126    2.5386 C.3     1  UNL1        0.0000
     30 H           4.4953    0.8051    3.6048 H       1  UNL1        0.0000
     31 H           5.6437    0.6983    2.2552 H       1  UNL1        0.0000
     32 H           4.2775   -0.4133    2.3502 H       1  UNL1        0.0000
     33 C           1.3275   -1.2339    7.3349 C.3     1  UNL1        0.0000
     34 H           1.2975   -2.1265    6.7181 H       1  UNL1        0.0000
     35 H           0.8104   -1.4640    8.2614 H       1  UNL1        0.0000
     36 H           2.3661   -1.0367    7.5840 H       1  UNL1        0.0000
     37 C          -0.0888    1.4925    7.8014 C.3     1  UNL1        0.0000
     38 H           0.0163    2.5154    7.4483 H       1  UNL1        0.0000
     39 H           0.4933    1.3951    8.7121 H       1  UNL1        0.0000
     40 H          -1.1288    1.3399    8.0681 H       1  UNL1        0.0000
     41 C          -1.0361   -0.4250    5.5137 C.3     1  UNL1        0.0000
     42 H          -1.5742    0.3757    5.0149 H       1  UNL1        0.0000
     43 H          -1.7319   -0.9235    6.1813 H       1  UNL1        0.0000
     44 H          -0.7381   -1.1419    4.7542 H       1  UNL1        0.0000
@<TRIPOS>BOND
     1    21    20    1
     2    20    22   ar
     3    20    18   ar
     4    23    22    1
     5    19    18    1
     6    22    24   ar
     7    18    17   ar
     8     9     8    1
     9    11    10    1
    10     8    10   ar
    11     8     6   ar
    12    24    25    1
    13    24    16   ar
    14    26    25    1
    15    17    16   ar
    16    17    29    1
    17     7     6    1
    18    10    12   ar
    19    25    28    1
    20    25    27    1
    21     6     5   ar
    22    31    29    1
    23    16     2    1
    24    32    29    1
    25    29    30    1
    26    12    13    1
    27    12    14   ar
    28     5    14   ar
    29     5     4    1
    30     2     4    1
    31    14    15    1
    32     4     3    1
    33    44    41    1
    34    42    41    1
    35     3     1    1
    36    41    43    1
    37    41     1    1
    38     1    33    1
    39     1    37    1
    40    34    33    1
    41    33    36    1
    42    33    35    1
    43    38    37    1
    44    37    40    1
    45    37    39    1
