@<TRIPOS>MOLECULE
1,2
 72 73 0 0 0
SMALL
GASTEIGER

@<TRIPOS>ATOM
      1 N           8.7698   13.3507    9.9486 N.pl3   1  UNL1       -0.2192
      2 N           7.1712   15.3689    8.9843 N.pl3   1  UNL1       -0.2371
      3 C           9.7543   12.8498   10.8228 C.ar    1  UNL1        0.0601
      4 C          11.0753   13.3309   10.7366 C.ar    1  UNL1       -0.0216
      5 C          12.0275   12.8394   11.6164 C.ar    1  UNL1       -0.0565
      6 C          11.6994   11.9089   12.5842 C.ar    1  UNL1       -0.0611
      7 C          10.4046   11.4419   12.6694 C.ar    1  UNL1       -0.0565
      8 C           9.4279   11.8806   11.7858 C.ar    1  UNL1       -0.0216
      9 C          11.4386   14.3654    9.6960 C.3     1  UNL1       -0.0197
     10 C          11.6259   13.7178    8.3184 C.3     1  UNL1       -0.0586
     11 C          12.6965   15.1565   10.0516 C.3     1  UNL1       -0.0586
     12 C           8.0289   11.3180   11.8937 C.3     1  UNL1       -0.0197
     13 C           7.3475   11.8991   13.1341 C.3     1  UNL1       -0.0586
     14 C           8.0344    9.7876   11.9338 C.3     1  UNL1       -0.0586
     15 C           8.4437   12.7159    8.8345 C.2     1  UNL1        0.0264
     16 C           7.6614   13.3325    7.8469 C.2     1  UNL1       -0.0383
     17 C           7.1583   14.6278    7.8773 C.3     1  UNL1        0.0968
     18 C           8.9475   11.3189    8.5455 C.3     1  UNL1       -0.0248
     19 C           6.5355   15.1476    6.6024 C.3     1  UNL1       -0.0359
     20 C           6.9426   16.7623    8.9074 C.ar    1  UNL1        0.0557
     21 C           5.7030   17.3294    9.2490 C.ar    1  UNL1       -0.0219
     22 C           5.5565   18.7103    9.2624 C.ar    1  UNL1       -0.0565
     23 C           6.5989   19.5437    8.9137 C.ar    1  UNL1       -0.0611
     24 C           7.7958   18.9882    8.5083 C.ar    1  UNL1       -0.0565
     25 C           7.9897   17.6139    8.4907 C.ar    1  UNL1       -0.0219
     26 C           4.4947   16.4733    9.5400 C.3     1  UNL1       -0.0197
     27 C           3.8536   16.8580   10.8727 C.3     1  UNL1       -0.0586
     28 C           3.4721   16.6032    8.4062 C.3     1  UNL1       -0.0586
     29 C           9.3041   17.0825    7.9600 C.3     1  UNL1       -0.0197
     30 C           9.4090   17.3596    6.4554 C.3     1  UNL1       -0.0586
     31 C          10.5076   17.7078    8.6701 C.3     1  UNL1       -0.0586
     32 H          13.0445   13.1891   11.5569 H       1  UNL1        0.0621
     33 H          12.4542   11.5487   13.2676 H       1  UNL1        0.0618
     34 H          10.1518   10.7157   13.4271 H       1  UNL1        0.0621
     35 H          10.5941   15.0623    9.6462 H       1  UNL1        0.0344
     36 H          11.9651   14.4631    7.6016 H       1  UNL1        0.0235
     37 H          12.3733   12.9276    8.3710 H       1  UNL1        0.0235
     38 H          10.6957   13.2944    7.9512 H       1  UNL1        0.0235
     39 H          12.8175   15.9867    9.3606 H       1  UNL1        0.0235
     40 H          12.6296   15.5589   11.0578 H       1  UNL1        0.0235
     41 H          13.5864   14.5352    9.9735 H       1  UNL1        0.0235
     42 H           7.4528   11.6353   11.0173 H       1  UNL1        0.0344
     43 H           6.3163   11.5549   13.2109 H       1  UNL1        0.0235
     44 H           7.3516   12.9884   13.0629 H       1  UNL1        0.0235
     45 H           7.8790   11.6052   14.0380 H       1  UNL1        0.0235
     46 H           7.0174    9.4038   11.8790 H       1  UNL1        0.0235
     47 H           8.4772    9.4195   12.8556 H       1  UNL1        0.0235
     48 H           8.6008    9.3821   11.0979 H       1  UNL1        0.0235
     49 H           7.5069   12.7714    6.9351 H       1  UNL1        0.0610
     50 H           9.1908   11.2066    7.4905 H       1  UNL1        0.0290
     51 H           9.8312   11.0929    9.1398 H       1  UNL1        0.0290
     52 H           8.1756   10.5868    8.7878 H       1  UNL1        0.0290
     53 H           7.1858   14.9595    5.7498 H       1  UNL1        0.0255
     54 H           6.3298   16.2130    6.6702 H       1  UNL1        0.0255
     55 H           5.5965   14.6227    6.4235 H       1  UNL1        0.0255
     56 H           4.6048   19.1401    9.5341 H       1  UNL1        0.0621
     57 H           6.4726   20.6159    8.9305 H       1  UNL1        0.0618
     58 H           8.5924   19.6416    8.1871 H       1  UNL1        0.0621
     59 H           4.8268   15.4335    9.6074 H       1  UNL1        0.0344
     60 H           3.1172   16.1124   11.1669 H       1  UNL1        0.0235
     61 H           3.3545   17.8223   10.8076 H       1  UNL1        0.0235
     62 H           4.6219   16.9121   11.6387 H       1  UNL1        0.0235
     63 H           2.5886   16.0074    8.6274 H       1  UNL1        0.0235
     64 H           3.1618   17.6395    8.2908 H       1  UNL1        0.0235
     65 H           3.8914   16.2689    7.4599 H       1  UNL1        0.0235
     66 H           9.3349   15.9982    8.1114 H       1  UNL1        0.0344
     67 H          10.3146   16.9083    6.0553 H       1  UNL1        0.0235
     68 H           9.4471   18.4298    6.2651 H       1  UNL1        0.0235
     69 H           8.5568   16.9503    5.9213 H       1  UNL1        0.0235
     70 H          11.4258   17.3190    8.2357 H       1  UNL1        0.0235
     71 H          10.5182   18.7883    8.5515 H       1  UNL1        0.0235
     72 H          10.5052   17.4782    9.7328 H       1  UNL1        0.0235
@<TRIPOS>BOND
     1    53    19    1
     2    69    30    1
     3    67    30    1
     4    68    30    1
     5    55    19    1
     6    30    29    1
     7    19    54    1
     8    19    17    1
     9    49    16    1
    10    65    28    1
    11    50    18    1
    12    36    10    1
    13    16    17    1
    14    16    15    2
    15    17     2    1
    16    38    10    1
    17    29    66    1
    18    29    25    1
    19    29    31    1
    20    58    24    1
    21    70    31    1
    22    64    28    1
    23    10    37    1
    24    10     9    1
    25    28    63    1
    26    28    26    1
    27    25    24   ar
    28    25    20   ar
    29    24    23   ar
    30    18    52    1
    31    18    15    1
    32    18    51    1
    33    71    31    1
    34    31    72    1
    35    15     1    1
    36    20     2    1
    37    20    21   ar
    38    23    57    1
    39    23    22   ar
    40    21    22   ar
    41    21    26    1
    42    22    56    1
    43    39    11    1
    44    26    59    1
    45    26    27    1
    46    35     9    1
    47     9    11    1
    48     9     4    1
    49     1     3    1
    50    41    11    1
    51    11    40    1
    52     4     3   ar
    53     4     5   ar
    54    61    27    1
    55     3     8   ar
    56    27    60    1
    57    27    62    1
    58    42    12    1
    59    48    14    1
    60    32     5    1
    61     5     6   ar
    62     8    12    1
    63     8     7   ar
    64    46    14    1
    65    12    14    1
    66    12    13    1
    67    14    47    1
    68     6     7   ar
    69     6    33    1
    70     7    34    1
    71    44    13    1
    72    13    43    1
    73    13    45    1
