@<TRIPOS>MOLECULE
1,2
 46 48 0 0 0
SMALL
GASTEIGER

@<TRIPOS>ATOM
      1 N          -0.8265    3.8942    8.6428 N.pl3   1  UNL1       -0.2381
      2 N           1.2911    2.7128    7.3508 N.pl3   1  UNL1       -0.2161
      3 C          -1.8174    4.4854    9.2820 C.2     1  UNL1        0.0130
      4 H          -2.0574    5.4961    8.9724 H       1  UNL1        0.0798
      5 C          -2.5360    3.8756   10.3161 C.2     1  UNL1       -0.0460
      6 H          -3.3427    4.4087   10.7954 H       1  UNL1        0.0631
      7 C          -2.1954    2.6056   10.6938 C.2     1  UNL1       -0.0548
      8 H          -2.7290    2.0939   11.4826 H       1  UNL1        0.0621
      9 C          -1.1238    1.9449   10.0561 C.2     1  UNL1       -0.0139
     10 C          -0.7083    0.6562   10.4156 C.2     1  UNL1       -0.0560
     11 H          -1.2250    0.1347   11.2066 H       1  UNL1        0.0621
     12 C           0.3543    0.0798    9.7563 C.2     1  UNL1       -0.0598
     13 H           0.6758   -0.9160   10.0292 H       1  UNL1        0.0618
     14 C           1.0278    0.7454    8.7468 C.2     1  UNL1       -0.0402
     15 H           1.8569    0.2614    8.2507 H       1  UNL1        0.0634
     16 C           0.6626    2.0356    8.3323 C.2     1  UNL1        0.0636
     17 C          -0.4553    2.6479    9.0098 C.3     1  UNL1        0.1493
     18 C           2.4964    2.1673    6.8636 C.ar    1  UNL1        0.0603
     19 C           3.6837    2.3196    7.6047 C.ar    1  UNL1       -0.0216
     20 C           4.8724    1.8255    7.0876 C.ar    1  UNL1       -0.0565
     21 H           5.7873    1.9400    7.6502 H       1  UNL1        0.0621
     22 C           4.9058    1.1763    5.8677 C.ar    1  UNL1       -0.0611
     23 H           5.8382    0.7893    5.4836 H       1  UNL1        0.0618
     24 C           3.7351    1.0101    5.1517 C.ar    1  UNL1       -0.0565
     25 H           3.7639    0.4747    4.2138 H       1  UNL1        0.0621
     26 C           2.5266    1.4948    5.6298 C.ar    1  UNL1       -0.0216
     27 C           3.6815    3.0175    8.9463 C.3     1  UNL1       -0.0197
     28 H           2.6593    3.3408    9.1678 H       1  UNL1        0.0344
     29 C           4.5701    4.2632    8.9188 C.3     1  UNL1       -0.0586
     30 H           5.6051    4.0028    8.7090 H       1  UNL1        0.0235
     31 H           4.5327    4.7678    9.8819 H       1  UNL1        0.0235
     32 H           4.2236    4.9571    8.1559 H       1  UNL1        0.0235
     33 C           4.1186    2.0623   10.0588 C.3     1  UNL1       -0.0586
     34 H           3.4630    1.1950   10.0893 H       1  UNL1        0.0235
     35 H           4.0686    2.5639   11.0230 H       1  UNL1        0.0235
     36 H           5.1390    1.7204    9.9015 H       1  UNL1        0.0235
     37 C           1.2496    1.2447    4.8595 C.3     1  UNL1       -0.0197
     38 H           0.4481    1.8426    5.3144 H       1  UNL1        0.0344
     39 C           0.8585   -0.2318    4.9694 C.3     1  UNL1       -0.0586
     40 H           1.6388   -0.8689    4.5574 H       1  UNL1        0.0235
     41 H          -0.0643   -0.4197    4.4241 H       1  UNL1        0.0235
     42 H           0.7043   -0.5048    6.0108 H       1  UNL1        0.0235
     43 C           1.3718    1.6626    3.3932 C.3     1  UNL1       -0.0586
     44 H           1.6765    2.7049    3.3277 H       1  UNL1        0.0235
     45 H           0.4113    1.5482    2.8941 H       1  UNL1        0.0235
     46 H           2.0992    1.0504    2.8644 H       1  UNL1        0.0235
@<TRIPOS>BOND
     1    46    43    1
     2    45    43    1
     3    44    43    1
     4    43    37    1
     5    25    24    1
     6    41    39    1
     7    40    39    1
     8    37    39    1
     9    37    38    1
    10    37    26    1
    11    39    42    1
    12    24    26   ar
    13    24    22   ar
    14    23    22    1
    15    26    18   ar
    16    22    20   ar
    17    18     2    1
    18    18    19   ar
    19    20    19   ar
    20    20    21    1
    21     2    16    1
    22    19    27    1
    23    32    29    1
    24    15    14    1
    25    16    14    2
    26    16    17    1
    27     1    17    1
    28     1     3    1
    29    30    29    1
    30    14    12    1
    31    29    27    1
    32    29    31    1
    33    27    28    1
    34    27    33    1
    35     4     3    1
    36    17     9    1
    37     3     5    2
    38    12    13    1
    39    12    10    2
    40    36    33    1
    41     9    10    1
    42     9     7    2
    43    33    34    1
    44    33    35    1
    45     5     7    1
    46     5     6    1
    47    10    11    1
    48     7     8    1
