@<TRIPOS>MOLECULE
1,3
 48 50 0 0 0
SMALL
GASTEIGER

@<TRIPOS>ATOM
      1 N          13.4249    7.3654    4.3754 N.pl3   1  UNL1       -0.1865
      2 N          12.0860    6.5822    6.1398 N.2     1  UNL1       -0.0591
      3 N          11.3345    8.6835    5.3773 N.pl3   1  UNL1        0.1436
      4 N          13.6445    5.1784    5.2245 N.3     1  UNL1       -0.2423
      5 N          10.4941    7.7448    7.3113 N.pl3   1  UNL1       -0.2197
      6 C          15.8524    7.1275    4.4503 C.ar    1  UNL1       -0.0389
      7 H          15.8030    6.8365    5.4903 H       1  UNL1        0.0637
      8 C          17.0700    7.2576    3.8129 C.ar    1  UNL1       -0.0600
      9 H          17.9809    7.0674    4.3627 H       1  UNL1        0.0618
     10 C          17.1343    7.6372    2.4808 C.ar    1  UNL1       -0.0616
     11 H          18.0914    7.7387    1.9904 H       1  UNL1        0.0618
     12 C          15.9615    7.8723    1.7786 C.ar    1  UNL1       -0.0600
     13 H          16.0025    8.1543    0.7357 H       1  UNL1        0.0618
     14 C          14.7363    7.7386    2.4009 C.ar    1  UNL1       -0.0389
     15 H          13.8124    7.8738    1.8397 H       1  UNL1        0.0637
     16 C          14.6602    7.3741    3.7553 C.ar    1  UNL1        0.0534
     17 C          13.2213    4.2248    6.2351 C.3     1  UNL1        0.0041
     18 H          13.1226    4.7565    7.1810 H       1  UNL1        0.0428
     19 H          14.0184    3.4782    6.3228 H       1  UNL1        0.0428
     20 C          11.9045    3.5457    5.8589 C.3     1  UNL1       -0.0400
     21 H          11.1317    4.3136    5.8041 H       1  UNL1        0.0278
     22 H          11.6277    2.8232    6.6288 H       1  UNL1        0.0278
     23 C          12.0493    2.8593    4.5034 C.3     1  UNL1       -0.0507
     24 H          12.7694    2.0392    4.5843 H       1  UNL1        0.0266
     25 H          11.0926    2.4368    4.1910 H       1  UNL1        0.0266
     26 C          12.5430    3.8643    3.4664 C.3     1  UNL1       -0.0400
     27 H          12.7153    3.3718    2.5077 H       1  UNL1        0.0278
     28 H          11.7956    4.6484    3.3178 H       1  UNL1        0.0278
     29 C          13.8424    4.5176    3.9439 C.3     1  UNL1        0.0041
     30 H          14.6219    3.7604    4.0845 H       1  UNL1        0.0428
     31 H          14.1913    5.2313    3.1982 H       1  UNL1        0.0428
     32 C          13.0155    6.4133    5.2350 C.3     1  UNL1        0.3396
     33 C          11.3433    7.7276    6.2345 C.cat   1  UNL1        0.4441
     34 C           9.7812    8.9637    7.6130 C.3     1  UNL1        0.0607
     35 H           8.8064    8.6921    8.0344 H       1  UNL1        0.0634
     36 H           9.6366    9.5082    6.6776 H       1  UNL1        0.0634
     37 C          10.5697    9.8082    8.6173 C.3     1  UNL1       -0.0238
     38 H          10.0058   10.7076    8.8705 H       1  UNL1        0.0294
     39 H          11.5105   10.1116    8.1519 H       1  UNL1        0.0294
     40 C          10.8541    8.9861    9.8734 C.3     1  UNL1       -0.0477
     41 H           9.9108    8.7527   10.3747 H       1  UNL1        0.0267
     42 H          11.4685    9.5634   10.5678 H       1  UNL1        0.0267
     43 C          11.5618    7.6839    9.5026 C.3     1  UNL1       -0.0238
     44 H          12.5362    7.9097    9.0654 H       1  UNL1        0.0294
     45 H          11.7144    7.0664   10.3897 H       1  UNL1        0.0294
     46 C          10.7338    6.9170    8.4674 C.3     1  UNL1        0.0607
     47 H          11.2515    6.0175    8.1377 H       1  UNL1        0.0634
     48 H           9.7639    6.6410    8.8971 H       1  UNL1        0.0634
@<TRIPOS>BOND
     1    13    12    1
     2    12    14   ar
     3    12    10   ar
     4    15    14    1
     5    11    10    1
     6    14    16   ar
     7    10     8   ar
     8    27    26    1
     9    31    29    1
    10    28    26    1
    11    26    29    1
    12    26    23    1
    13    16     1    1
    14    16     6   ar
    15     8     9    1
    16     8     6   ar
    17    29    30    1
    18    29     4    1
    19    25    23    1
    20     1    32    1
    21     6     7    1
    22    23    24    1
    23    23    20    1
    24     4    32    1
    25     4    17    1
    26    32     2    1
    27     3    33    1
    28    21    20    1
    29    20    17    1
    30    20    22    1
    31     2    33    2
    32    33     5    1
    33    17    19    1
    34    17    18    1
    35    36    34    1
    36     5    34    1
    37     5    46    1
    38    34    35    1
    39    34    37    1
    40    47    46    1
    41    39    37    1
    42    46    48    1
    43    46    43    1
    44    37    38    1
    45    37    40    1
    46    44    43    1
    47    43    40    1
    48    43    45    1
    49    40    41    1
    50    40    42    1
