@<TRIPOS>MOLECULE
1,5
 47 47 0 0 0
SMALL
GASTEIGER

@<TRIPOS>ATOM
      1 N           8.7687    6.1979    6.6454 N.pl3   1  UNL1        0.3300
      2 N          10.6579    5.2031    7.6359 N.pl3   1  UNL1        0.3300
      3 N          10.8890    7.2015    6.5632 N.pl3   1  UNL1        0.3300
      4 N          11.3286    9.3575    6.0124 N.3     1  UNL1        0.0000
      5 N           9.2828    8.4247    5.3534 N.3     1  UNL1        0.0000
      6 C           7.7958    5.6089    7.4311 C.ar    1  UNL1        0.0000
      7 C           6.7083    4.9616    6.8317 C.ar    1  UNL1        0.0000
      8 H           6.6964    4.8587    5.7494 H       1  UNL1        0.0000
      9 C           5.6829    4.4614    7.6092 C.ar    1  UNL1        0.0000
     10 H           4.8508    3.9598    7.1362 H       1  UNL1        0.0000
     11 C           5.7135    4.5916    8.9899 C.ar    1  UNL1        0.0000
     12 H           4.9080    4.1988    9.5919 H       1  UNL1        0.0000
     13 C           6.7842    5.2319    9.5908 C.ar    1  UNL1        0.0000
     14 H           6.8141    5.3423   10.6657 H       1  UNL1        0.0000
     15 C           7.8178    5.7361    8.8256 C.ar    1  UNL1        0.0000
     16 H           8.6457    6.2538    9.2924 H       1  UNL1        0.0000
     17 C          10.0662    6.2044    6.9299 C.cat   1  UNL1        0.0000
     18 C          10.0641    3.8870    7.7371 C.3     1  UNL1        0.0000
     19 H           9.5256    3.7617    8.6815 H       1  UNL1        0.0000
     20 H          10.8583    3.1424    7.6798 H       1  UNL1        0.0000
     21 H           9.3773    3.7131    6.9070 H       1  UNL1        0.0000
     22 C          12.0606    5.2702    7.9696 C.3     1  UNL1        0.0000
     23 H          12.6617    4.6935    7.2597 H       1  UNL1        0.0000
     24 H          12.2066    4.8639    8.9725 H       1  UNL1        0.0000
     25 H          12.3805    6.3072    7.9372 H       1  UNL1        0.0000
     26 C          10.4515    8.3115    5.9573 C.3     1  UNL1        0.0000
     27 C          12.5572    9.2155    6.7581 C.3     1  UNL1        0.0000
     28 H          12.3559    8.6767    7.6801 H       1  UNL1        0.0000
     29 H          12.9329   10.2115    6.9938 H       1  UNL1        0.0000
     30 H          13.3156    8.6699    6.1879 H       1  UNL1        0.0000
     31 C          11.3932   10.3440    4.9611 C.3     1  UNL1        0.0000
     32 H          10.5613   10.2067    4.2754 H       1  UNL1        0.0000
     33 H          12.3288   10.2294    4.4046 H       1  UNL1        0.0000
     34 H          11.3544   11.3502    5.3822 H       1  UNL1        0.0000
     35 SI          8.0988    9.6822    5.4680 Si      1  UNL1        0.0000
     36 C           6.6355    8.9347    6.4503 C.3     1  UNL1        0.0000
     37 H           6.4053    7.9534    6.0382 H       1  UNL1        0.0000
     38 H           5.7433    9.5509    6.3968 H       1  UNL1        0.0000
     39 H           6.8844    8.8018    7.5009 H       1  UNL1        0.0000
     40 C           7.5837   10.1412    3.6819 C.3     1  UNL1        0.0000
     41 H           8.3134   10.7719    3.1806 H       1  UNL1        0.0000
     42 H           6.6366   10.6700    3.6735 H       1  UNL1        0.0000
     43 H           7.4652    9.2314    3.0970 H       1  UNL1        0.0000
     44 C           8.6595   11.2433    6.4299 C.3     1  UNL1        0.0000
     45 H           9.4079   11.0024    7.1773 H       1  UNL1        0.0000
     46 H           7.8114   11.6809    6.9450 H       1  UNL1        0.0000
     47 H           9.0684   12.0064    5.7777 H       1  UNL1        0.0000
@<TRIPOS>BOND
     1    43    40    1
     2    41    40    1
     3    42    40    1
     4    40    35    1
     5    32    31    1
     6    33    31    1
     7    31    34    1
     8    31     4    1
     9     5    35    1
    10     5    26    1
    11    35    44    1
    12    35    36    1
    13     8     7    1
    14    47    44    1
    15    26     4    1
    16    26     3    1
    17     4    27    1
    18    37    36    1
    19    30    27    1
    20    38    36    1
    21    44    46    1
    22    44    45    1
    23    36    39    1
    24     3    17    2
    25     1    17    1
    26     1     6    1
    27    27    29    1
    28    27    28    1
    29     7     6   ar
    30     7     9   ar
    31    21    18    1
    32    17     2    1
    33    10     9    1
    34    23    22    1
    35     6    15   ar
    36     9    11   ar
    37     2    18    1
    38     2    22    1
    39    20    18    1
    40    18    19    1
    41    25    22    1
    42    22    24    1
    43    15    16    1
    44    15    13   ar
    45    11    13   ar
    46    11    12    1
    47    13    14    1
