@<TRIPOS>MOLECULE
1,5
 34 34 0 0 0
SMALL
GASTEIGER

@<TRIPOS>ATOM
      1 N           9.4151    6.9954    2.8982 N.pl3   1  UNL1       -0.1865
      2 N           9.2396    6.6540    0.5803 N.3     1  UNL1       -0.2484
      3 N           7.3342    6.6920    1.8287 N.pl3   1  UNL1       -0.0550
      4 N           5.2597    6.7393    2.7997 N.pl3   1  UNL1       -0.2622
      5 N           7.1119    6.6661    4.1742 N.pl3   1  UNL1        0.1284
      6 C          10.7147    7.4648    2.7808 C.ar    1  UNL1        0.0534
      7 C          11.0419    8.5332    1.9345 C.ar    1  UNL1       -0.0389
      8 H          10.2636    8.9791    1.3314 H       1  UNL1        0.0637
      9 C          12.3375    9.0059    1.8707 C.ar    1  UNL1       -0.0600
     10 H          12.5730    9.8276    1.2090 H       1  UNL1        0.0618
     11 C          13.3348    8.4380    2.6488 C.ar    1  UNL1       -0.0616
     12 H          14.3482    8.8074    2.5902 H       1  UNL1        0.0618
     13 C          13.0216    7.3863    3.4966 C.ar    1  UNL1       -0.0600
     14 H          13.7954    6.9285    4.0970 H       1  UNL1        0.0618
     15 C          11.7305    6.9002    3.5667 C.ar    1  UNL1       -0.0389
     16 H          11.5048    6.0440    4.1991 H       1  UNL1        0.0637
     17 C           8.6404    6.7719    1.8218 C.3     1  UNL1        0.3395
     18 C          10.4213    5.8260    0.4389 C.3     1  UNL1       -0.0079
     19 H          11.2468    6.4011    0.0088 H       1  UNL1        0.0392
     20 H          10.2002    4.9789   -0.2168 H       1  UNL1        0.0392
     21 H          10.7322    5.4280    1.4035 H       1  UNL1        0.0392
     22 C           8.3749    6.6421   -0.5766 C.3     1  UNL1       -0.0079
     23 H           7.8622    5.6822   -0.7019 H       1  UNL1        0.0392
     24 H           8.9833    6.8444   -1.4587 H       1  UNL1        0.0392
     25 H           7.6262    7.4220   -0.4640 H       1  UNL1        0.0392
     26 C           6.6120    6.7105    2.9905 C.cat   1  UNL1        0.4644
     27 C           4.6564    6.8064    1.4975 C.3     1  UNL1        0.0560
     28 H           4.1021    7.7435    1.3789 H       1  UNL1        0.0620
     29 H           3.9616    5.9722    1.3601 H       1  UNL1        0.0620
     30 H           5.4443    6.7496    0.7529 H       1  UNL1        0.0620
     31 C           4.3584    6.6937    3.9190 C.3     1  UNL1        0.0560
     32 H           4.9427    6.5658    4.8293 H       1  UNL1        0.0620
     33 H           3.6638    5.8550    3.8109 H       1  UNL1        0.0620
     34 H           3.7795    7.6205    3.9874 H       1  UNL1        0.0620
@<TRIPOS>BOND
     1    24    22    1
     2    23    22    1
     3    22    25    1
     4    22     2    1
     5    20    18    1
     6    19    18    1
     7    18     2    1
     8    18    21    1
     9     2    17    1
    10    30    27    1
    11    10     9    1
    12     8     7    1
    13    29    27    1
    14    28    27    1
    15    27     4    1
    16    17     3    1
    17    17     1    1
    18     3    26    2
    19     9     7   ar
    20     9    11   ar
    21     7     6   ar
    22    12    11    1
    23    11    13   ar
    24     6     1    1
    25     6    15   ar
    26     4    26    1
    27     4    31    1
    28    26     5    1
    29    13    15   ar
    30    13    14    1
    31    15    16    1
    32    33    31    1
    33    31    34    1
    34    31    32    1
