@<TRIPOS>MOLECULE
2,4
 61 63 0 0 0
SMALL
GASTEIGER

@<TRIPOS>ATOM
      1 SI         10.0020   11.1067    3.3413 Si      1  UNL1        0.0000
      2 N          13.6655   10.1516    4.2594 N.pl3   1  UNL1        0.0000
      3 N          13.5970   10.5779    1.9525 N.2     1  UNL1        0.3300
      4 N          11.4516   10.3240    2.8479 N.pl3   1  UNL1        0.3300
      5 N          15.4201   11.2426    3.1470 N.3     1  UNL1        0.0000
      6 N          11.8385   10.3874    0.5284 N.pl3   1  UNL1        0.3300
      7 C          13.9252   10.6675    5.5181 C.ar    1  UNL1        0.0000
      8 C          14.0362    9.8153    6.6238 C.ar    1  UNL1        0.0000
      9 H          13.9811    8.7445    6.4698 H       1  UNL1        0.0000
     10 C          14.2113   10.3377    7.8910 C.ar    1  UNL1        0.0000
     11 H          14.3043    9.6703    8.7363 H       1  UNL1        0.0000
     12 C          14.2744   11.7082    8.0900 C.ar    1  UNL1        0.0000
     13 H          14.4063   12.1080    9.0839 H       1  UNL1        0.0000
     14 C          14.1582   12.5594    7.0033 C.ar    1  UNL1        0.0000
     15 H          14.1943   13.6296    7.1503 H       1  UNL1        0.0000
     16 C          13.9897   12.0510    5.7310 C.ar    1  UNL1        0.0000
     17 H          13.8799   12.7133    4.8830 H       1  UNL1        0.0000
     18 C          16.4885   10.8313    4.0328 C.3     1  UNL1        0.0000
     19 H          17.1752   10.1791    3.4715 H       1  UNL1        0.0000
     20 H          16.0872   10.2559    4.8664 H       1  UNL1        0.0000
     21 C          17.2540   12.0524    4.5359 C.3     1  UNL1        0.0000
     22 H          18.0678   11.7258    5.1847 H       1  UNL1        0.0000
     23 H          16.5813   12.6804    5.1222 H       1  UNL1        0.0000
     24 C          17.7990   12.8388    3.3468 C.3     1  UNL1        0.0000
     25 H          18.2984   13.7464    3.6899 H       1  UNL1        0.0000
     26 H          18.5342   12.2294    2.8159 H       1  UNL1        0.0000
     27 C          16.6554   13.1919    2.4004 C.3     1  UNL1        0.0000
     28 H          15.9584   13.8607    2.9087 H       1  UNL1        0.0000
     29 H          17.0365   13.7042    1.5157 H       1  UNL1        0.0000
     30 C          15.9100   11.9281    1.9722 C.3     1  UNL1        0.0000
     31 H          15.0556   12.1753    1.3430 H       1  UNL1        0.0000
     32 H          16.5839   11.2697    1.4064 H       1  UNL1        0.0000
     33 C          14.1875   10.6545    3.1425 C.3     1  UNL1        0.0000
     34 C          12.2640   10.4029    1.8147 C.cat   1  UNL1        0.0000
     35 C          12.7635   10.5172   -0.5773 C.3     1  UNL1        0.0000
     36 H          13.7192   10.8549   -0.1795 H       1  UNL1        0.0000
     37 H          12.3625   11.2745   -1.2634 H       1  UNL1        0.0000
     38 C          12.9207    9.1916   -1.3205 C.3     1  UNL1        0.0000
     39 H          13.3299    8.4454   -0.6370 H       1  UNL1        0.0000
     40 H          13.6181    9.3195   -2.1505 H       1  UNL1        0.0000
     41 C          11.5574    8.7282   -1.8222 C.3     1  UNL1        0.0000
     42 H          11.6451    7.7637   -2.3252 H       1  UNL1        0.0000
     43 H          11.1711    9.4520   -2.5455 H       1  UNL1        0.0000
     44 C          10.6017    8.6166   -0.6396 C.3     1  UNL1        0.0000
     45 H           9.6003    8.3507   -0.9810 H       1  UNL1        0.0000
     46 H          10.9427    7.8389    0.0468 H       1  UNL1        0.0000
     47 C          10.5234    9.9391    0.1294 C.3     1  UNL1        0.0000
     48 H          10.0697   10.7154   -0.4997 H       1  UNL1        0.0000
     49 H           9.9121    9.7955    1.0183 H       1  UNL1        0.0000
     50 C           9.4288   12.4634    2.1134 C.3     1  UNL1        0.0000
     51 H          10.2718   12.8913    1.5799 H       1  UNL1        0.0000
     52 H           8.9358   13.2669    2.6488 H       1  UNL1        0.0000
     53 H           8.7279   12.0851    1.3776 H       1  UNL1        0.0000
     54 C           8.6382    9.7930    3.6288 C.3     1  UNL1        0.0000
     55 H           8.1743    9.4493    2.7076 H       1  UNL1        0.0000
     56 H           7.8490   10.1721    4.2705 H       1  UNL1        0.0000
     57 H           9.0856    8.9259    4.1180 H       1  UNL1        0.0000
     58 C          10.4442   11.9488    5.0074 C.3     1  UNL1        0.0000
     59 H          11.0248   11.2537    5.6136 H       1  UNL1        0.0000
     60 H           9.5587   12.2341    5.5670 H       1  UNL1        0.0000
     61 H          11.0422   12.8450    4.8637 H       1  UNL1        0.0000
@<TRIPOS>BOND
     1    43    41    1
     2    42    41    1
     3    40    38    1
     4    41    38    1
     5    41    44    1
     6    38    39    1
     7    38    35    1
     8    37    35    1
     9    45    44    1
    10    44    46    1
    11    44    47    1
    12    35    36    1
    13    35     6    1
    14    48    47    1
    15    47     6    1
    16    47    49    1
    17     6    34    1
    18    31    30    1
    19    53    50    1
    20    32    30    1
    21    29    27    1
    22    51    50    1
    23    34     3    2
    24    34     4    1
    25     3    33    1
    26    30    27    1
    27    30     5    1
    28    50    52    1
    29    50     1    1
    30    27    28    1
    31    27    24    1
    32    55    54    1
    33    26    24    1
    34     4     1    1
    35    33     5    1
    36    33     2    1
    37     5    18    1
    38     1    54    1
    39     1    58    1
    40    24    25    1
    41    24    21    1
    42    19    18    1
    43    54    57    1
    44    54    56    1
    45    18    21    1
    46    18    20    1
    47     2     7    1
    48    21    23    1
    49    21    22    1
    50    61    58    1
    51    17    16    1
    52    58    60    1
    53    58    59    1
    54     7    16   ar
    55     7     8   ar
    56    16    14   ar
    57     9     8    1
    58     8    10   ar
    59    14    15    1
    60    14    12   ar
    61    10    12   ar
    62    10    11    1
    63    12    13    1
