@<TRIPOS>MOLECULE
1,5
 72 73 0 0 0
SMALL
GASTEIGER

@<TRIPOS>ATOM
      1 N           3.6173    0.3259    0.2926 N.pl3   1  UNL1       -0.2192
      2 C           2.9054   -0.5227    1.0111 C.2     1  UNL1        0.0264
      3 C           2.9449   -0.5791    2.4127 C.2     1  UNL1       -0.0383
      4 C           3.8480   -0.0009    3.3091 C.3     1  UNL1        0.0968
      5 N           4.8036    0.8520    2.9609 N.pl3   1  UNL1       -0.2371
      6 C           3.7217    0.1885   -1.1089 C.ar    1  UNL1        0.0601
      7 C           2.7785    0.7504   -1.9870 C.ar    1  UNL1       -0.0216
      8 C           2.9245    0.5571   -3.3544 C.ar    1  UNL1       -0.0565
      9 C           3.9657   -0.1903   -3.8645 C.ar    1  UNL1       -0.0611
     10 C           4.8970   -0.7360   -3.0016 C.ar    1  UNL1       -0.0565
     11 C           4.8019   -0.5506   -1.6312 C.ar    1  UNL1       -0.0216
     12 C           5.8355   -1.1510   -0.7038 C.3     1  UNL1       -0.0197
     13 C           7.2375   -1.1365   -1.3158 C.3     1  UNL1       -0.0586
     14 C           5.4441   -2.5859   -0.3343 C.3     1  UNL1       -0.0586
     15 C           1.6115    1.5698   -1.4862 C.3     1  UNL1       -0.0197
     16 C           1.6799    2.9913   -2.0538 C.3     1  UNL1       -0.0586
     17 C           0.2752    0.9253   -1.8660 C.3     1  UNL1       -0.0586
     18 C           1.9997   -1.5388    0.3445 C.3     1  UNL1       -0.0248
     19 C           3.7198   -0.4593    4.7477 C.3     1  UNL1       -0.0359
     20 C           5.9040    1.0673    3.8141 C.ar    1  UNL1        0.0557
     21 C           6.0965    2.3027    4.4598 C.ar    1  UNL1       -0.0219
     22 C           7.1784    2.4676    5.3121 C.ar    1  UNL1       -0.0565
     23 C           8.0630    1.4363    5.5575 C.ar    1  UNL1       -0.0611
     24 C           7.8929    0.2337    4.9017 C.ar    1  UNL1       -0.0565
     25 C           6.8364    0.0312    4.0262 C.ar    1  UNL1       -0.0219
     26 C           6.7871   -1.2648    3.2473 C.3     1  UNL1       -0.0197
     27 C           7.9832   -1.2920    2.2910 C.3     1  UNL1       -0.0586
     28 C           6.8117   -2.4997    4.1510 C.3     1  UNL1       -0.0586
     29 C           5.1757    3.4710    4.2004 C.3     1  UNL1       -0.0197
     30 C           5.8966    4.4559    3.2745 C.3     1  UNL1       -0.0586
     31 C           4.7272    4.1639    5.4886 C.3     1  UNL1       -0.0586
     32 H           2.2356   -1.2638    2.8621 H       1  UNL1        0.0610
     33 H           2.2023    0.9876   -4.0313 H       1  UNL1        0.0621
     34 H           4.0539   -0.3472   -4.9291 H       1  UNL1        0.0618
     35 H           5.7070   -1.3190   -3.4093 H       1  UNL1        0.0621
     36 H           5.8504   -0.5400    0.2126 H       1  UNL1        0.0344
     37 H           7.4730   -0.1490   -1.7044 H       1  UNL1        0.0235
     38 H           7.3249   -1.8595   -2.1234 H       1  UNL1        0.0235
     39 H           7.9777   -1.3935   -0.5631 H       1  UNL1        0.0235
     40 H           5.3112   -3.1843   -1.2341 H       1  UNL1        0.0235
     41 H           4.5163   -2.6010    0.2309 H       1  UNL1        0.0235
     42 H           6.2210   -3.0460    0.2723 H       1  UNL1        0.0235
     43 H           1.6760    1.6322   -0.3929 H       1  UNL1        0.0344
     44 H           2.6615    3.4248   -1.8679 H       1  UNL1        0.0235
     45 H           1.5060    2.9899   -3.1275 H       1  UNL1        0.0235
     46 H           0.9230    3.6195   -1.5878 H       1  UNL1        0.0235
     47 H           0.2072   -0.0901   -1.4843 H       1  UNL1        0.0235
     48 H           0.1561    0.8888   -2.9464 H       1  UNL1        0.0235
     49 H          -0.5493    1.5042   -1.4547 H       1  UNL1        0.0235
     50 H           2.2402   -1.6450   -0.7116 H       1  UNL1        0.0290
     51 H           0.9615   -1.2172    0.4325 H       1  UNL1        0.0290
     52 H           2.0839   -2.5100    0.8299 H       1  UNL1        0.0290
     53 H           2.6762   -0.4312    5.0568 H       1  UNL1        0.0255
     54 H           4.3075    0.1700    5.4143 H       1  UNL1        0.0255
     55 H           4.0655   -1.4876    4.8498 H       1  UNL1        0.0255
     56 H           7.3290    3.4172    5.8017 H       1  UNL1        0.0621
     57 H           8.8873    1.5738    6.2411 H       1  UNL1        0.0618
     58 H           8.6006   -0.5634    5.0721 H       1  UNL1        0.0621
     59 H           5.8707   -1.2939    2.6465 H       1  UNL1        0.0344
     60 H           7.9557   -0.4228    1.6369 H       1  UNL1        0.0235
     61 H           7.9646   -2.1964    1.6870 H       1  UNL1        0.0235
     62 H           8.9187   -1.2719    2.8454 H       1  UNL1        0.0235
     63 H           6.6256   -3.3956    3.5618 H       1  UNL1        0.0235
     64 H           7.7792   -2.6097    4.6345 H       1  UNL1        0.0235
     65 H           6.0536   -2.4342    4.9277 H       1  UNL1        0.0235
     66 H           4.2828    3.1039    3.6735 H       1  UNL1        0.0344
     67 H           6.8251    4.7989    3.7278 H       1  UNL1        0.0235
     68 H           6.1169    3.9460    2.3280 H       1  UNL1        0.0235
     69 H           5.2674    5.3229    3.0782 H       1  UNL1        0.0235
     70 H           3.9742    4.9147    5.2584 H       1  UNL1        0.0235
     71 H           4.2990    3.4461    6.1852 H       1  UNL1        0.0235
     72 H           5.5574    4.6654    5.9800 H       1  UNL1        0.0235
@<TRIPOS>BOND
     1    34     9    1
     2    33     8    1
     3     9     8   ar
     4     9    10   ar
     5    35    10    1
     6     8     7   ar
     7    45    16    1
     8    10    11   ar
     9    48    17    1
    10    38    13    1
    11    16    44    1
    12    16    46    1
    13    16    15    1
    14     7    15    1
    15     7     6   ar
    16    17    15    1
    17    17    47    1
    18    17    49    1
    19    37    13    1
    20    11     6   ar
    21    11    12    1
    22    15    43    1
    23    13    12    1
    24    13    39    1
    25    40    14    1
    26     6     1    1
    27    50    18    1
    28    12    14    1
    29    12    36    1
    30    14    41    1
    31    14    42    1
    32     1     2    1
    33    18    51    1
    34    18    52    1
    35    18     2    1
    36     2     3    2
    37    60    27    1
    38    61    27    1
    39    27    62    1
    40    27    26    1
    41    68    30    1
    42     3    32    1
    43     3     4    1
    44    59    26    1
    45     5     4    1
    46     5    20    1
    47    69    30    1
    48    26    25    1
    49    26    28    1
    50    30    67    1
    51    30    29    1
    52     4    19    1
    53    63    28    1
    54    66    29    1
    55    20    25   ar
    56    20    21   ar
    57    25    24   ar
    58    28    64    1
    59    28    65    1
    60    29    21    1
    61    29    31    1
    62    21    22   ar
    63    19    55    1
    64    19    53    1
    65    19    54    1
    66    24    58    1
    67    24    23   ar
    68    70    31    1
    69    22    23   ar
    70    22    56    1
    71    31    72    1
    72    31    71    1
    73    23    57    1
