@<TRIPOS>MOLECULE
2,3
 44 44 0 0 0
SMALL
GASTEIGER

@<TRIPOS>ATOM
      1 C           0.2019    3.2077   12.3596 C.3     1  UNL1        0.0000
      2 N           0.5172    2.0456   11.8333 N.3     1  UNL1        0.0000
      3 N          -0.4068    3.1385   13.5220 N.3     1  UNL1        0.0000
      4 SI          1.7811    1.8234   10.6599 Si      1  UNL1        0.0000
      5 SI         -0.4228    4.4288   14.6877 Si      1  UNL1        0.0000
      6 C           1.6085    2.9355    9.1111 C.3     1  UNL1        0.0000
      7 C           3.4535    2.1474   11.5456 C.3     1  UNL1        0.0000
      8 C           1.7529    0.0126   10.0685 C.3     1  UNL1        0.0000
      9 C          -1.5704    3.9356   16.1262 C.3     1  UNL1        0.0000
     10 C           1.3636    4.6122   15.3677 C.3     1  UNL1        0.0000
     11 C          -1.0575    6.0964   13.9935 C.3     1  UNL1        0.0000
     12 C           0.4706    4.4943   11.6740 C.ar    1  UNL1        0.0000
     13 C           1.6558    5.1835   11.8774 C.ar    1  UNL1        0.0000
     14 C           1.9002    6.3858   11.2343 C.ar    1  UNL1        0.0000
     15 C           0.9489    6.9179   10.3706 C.ar    1  UNL1        0.0000
     16 C          -0.2451    6.2241   10.1644 C.ar    1  UNL1        0.0000
     17 C          -0.4788    5.0289   10.8084 C.ar    1  UNL1        0.0000
     18 O           1.0803    8.0882    9.6880 O.3     1  UNL1        0.0000
     19 C           2.2577    8.8396    9.8576 C.3     1  UNL1        0.0000
     20 H           1.8984    3.9620    9.3049 H       1  UNL1        0.0000
     21 H           2.2429    2.5579    8.3166 H       1  UNL1        0.0000
     22 H           0.5895    2.9491    8.7385 H       1  UNL1        0.0000
     23 H           3.3388    1.9530   12.6122 H       1  UNL1        0.0000
     24 H           4.2326    1.4890   11.1745 H       1  UNL1        0.0000
     25 H           3.8027    3.1680   11.4183 H       1  UNL1        0.0000
     26 H           1.7877   -0.6600   10.9175 H       1  UNL1        0.0000
     27 H           0.8758   -0.2236    9.4751 H       1  UNL1        0.0000
     28 H           2.6228   -0.1844    9.4503 H       1  UNL1        0.0000
     29 H          -1.2833    2.9678   16.5202 H       1  UNL1        0.0000
     30 H          -1.4853    4.6614   16.9286 H       1  UNL1        0.0000
     31 H          -2.6152    3.8959   15.8368 H       1  UNL1        0.0000
     32 H           1.8881    3.6626   15.2618 H       1  UNL1        0.0000
     33 H           1.9319    5.3778   14.8478 H       1  UNL1        0.0000
     34 H           1.3619    4.8693   16.4220 H       1  UNL1        0.0000
     35 H          -0.3191    6.5948   13.3756 H       1  UNL1        0.0000
     36 H          -1.9516    5.9663   13.3924 H       1  UNL1        0.0000
     37 H          -1.3067    6.7628   14.8121 H       1  UNL1        0.0000
     38 H           2.3969    4.7757   12.5469 H       1  UNL1        0.0000
     39 H           2.8336    6.8957   11.4152 H       1  UNL1        0.0000
     40 H          -0.9731    6.6490    9.4916 H       1  UNL1        0.0000
     41 H          -1.4065    4.5011   10.6415 H       1  UNL1        0.0000
     42 H           2.1375    9.7201    9.2286 H       1  UNL1        0.0000
     43 H           2.3877    9.1544   10.8981 H       1  UNL1        0.0000
     44 H           3.1419    8.2819    9.5324 H       1  UNL1        0.0000
@<TRIPOS>BOND
     1    21     6    1
     2    22     6    1
     3     6    20    1
     4     6     4    1
     5    42    19    1
     6    28     8    1
     7    27     8    1
     8    40    16    1
     9    44    19    1
    10    18    19    1
    11    18    15    1
    12    19    43    1
    13     8     4    1
    14     8    26    1
    15    16    15   ar
    16    16    17   ar
    17    15    14   ar
    18    41    17    1
    19     4     7    1
    20     4     2    1
    21    17    12   ar
    22    24     7    1
    23    14    39    1
    24    14    13   ar
    25    25     7    1
    26     7    23    1
    27    12    13   ar
    28    12     1    1
    29     2     1    1
    30    13    38    1
    31     1     3    1
    32    35    11    1
    33    36    11    1
    34     3     5    1
    35    11     5    1
    36    11    37    1
    37     5    10    1
    38     5     9    1
    39    33    10    1
    40    32    10    1
    41    10    34    1
    42    31     9    1
    43     9    29    1
    44     9    30    1
