@<TRIPOS>MOLECULE
1,2
 60 61 0 0 0
SMALL
GASTEIGER

@<TRIPOS>ATOM
      1 N          -3.7950   -1.1029   18.0162 N.pl3   1  UNL1       -0.2193
      2 N          -1.0583   -1.9663   18.6546 N.pl3   1  UNL1       -0.2372
      3 C          -5.1159   -2.8743   16.9384 C.3     1  UNL1       -0.0248
      4 H          -5.9833   -2.3097   17.2723 H       1  UNL1        0.0290
      5 H          -5.2447   -3.9206   17.2093 H       1  UNL1        0.0290
      6 H          -5.0619   -2.8163   15.8500 H       1  UNL1        0.0290
      7 C          -3.8307   -2.3192   17.5107 C.2     1  UNL1        0.0264
      8 C          -2.7441   -3.1892   17.4647 C.2     1  UNL1       -0.0383
      9 H          -2.9288   -4.1439   16.9914 H       1  UNL1        0.0610
     10 C          -1.5255   -3.0810   18.1420 C.3     1  UNL1        0.0968
     11 C          -0.7793   -4.3918   18.2755 C.3     1  UNL1       -0.0359
     12 H          -0.3821   -4.6810   17.3021 H       1  UNL1        0.0255
     13 H          -1.4583   -5.1806   18.5980 H       1  UNL1        0.0255
     14 H           0.0413   -4.3252   18.9855 H       1  UNL1        0.0255
     15 C          -5.0146   -0.4946   18.3991 C.ar    1  UNL1        0.0596
     16 C          -5.5656   -0.8258   19.6479 C.ar    1  UNL1       -0.0244
     17 C          -6.6740   -0.1326   20.1115 C.ar    1  UNL1       -0.0567
     18 H          -7.0729   -0.3759   21.0862 H       1  UNL1        0.0621
     19 C          -7.2629    0.8611   19.3548 C.ar    1  UNL1       -0.0611
     20 H          -8.1130    1.4071   19.7362 H       1  UNL1        0.0618
     21 C          -6.7657    1.1304   18.0948 C.ar    1  UNL1       -0.0567
     22 H          -7.2398    1.8816   17.4795 H       1  UNL1        0.0621
     23 C          -5.6657    0.4493   17.5952 C.ar    1  UNL1       -0.0244
     24 C          -5.0122   -1.9380   20.4992 C.3     1  UNL1       -0.0287
     25 H          -4.0535   -2.2753   20.1078 H       1  UNL1        0.0311
     26 H          -4.8563   -1.5706   21.5176 H       1  UNL1        0.0311
     27 C          -5.9657   -3.1328   20.5519 C.3     1  UNL1       -0.0612
     28 H          -6.9302   -2.8394   20.9604 H       1  UNL1        0.0233
     29 H          -5.5499   -3.9190   21.1795 H       1  UNL1        0.0233
     30 H          -6.1286   -3.5392   19.5568 H       1  UNL1        0.0233
     31 C          -5.2325    0.7143   16.1811 C.3     1  UNL1       -0.0287
     32 H          -4.2993    0.1893   15.9789 H       1  UNL1        0.0311
     33 H          -5.0597    1.7867   16.0607 H       1  UNL1        0.0311
     34 C          -6.2899    0.2695   15.1688 C.3     1  UNL1       -0.0612
     35 H          -6.4919   -0.7948   15.2631 H       1  UNL1        0.0233
     36 H          -5.9437    0.4654   14.1559 H       1  UNL1        0.0233
     37 H          -7.2241    0.8047   15.3214 H       1  UNL1        0.0233
     38 C           0.0978   -2.0200   19.4707 C.ar    1  UNL1        0.0551
     39 C           1.3859   -2.0687   18.9123 C.ar    1  UNL1       -0.0248
     40 C           2.4844   -2.0722   19.7580 C.ar    1  UNL1       -0.0568
     41 H           3.4790   -2.1105   19.3434 H       1  UNL1        0.0621
     42 C           2.3326   -2.0425   21.1319 C.ar    1  UNL1       -0.0611
     43 H           3.2016   -2.0467   21.7730 H       1  UNL1        0.0618
     44 C           1.0649   -2.0219   21.6761 C.ar    1  UNL1       -0.0568
     45 H           0.9360   -2.0174   22.7494 H       1  UNL1        0.0621
     46 C          -0.0580   -2.0139   20.8624 C.ar    1  UNL1       -0.0248
     47 C           1.5485   -2.1569   17.4175 C.3     1  UNL1       -0.0287
     48 H           1.4254   -3.2006   17.1101 H       1  UNL1        0.0311
     49 H           0.7375   -1.5899   16.9545 H       1  UNL1        0.0311
     50 C           2.8906   -1.6601   16.8892 C.3     1  UNL1       -0.0612
     51 H           3.1253   -0.6764   17.2901 H       1  UNL1        0.0233
     52 H           2.8589   -1.5937   15.8030 H       1  UNL1        0.0233
     53 H           3.6953   -2.3427   17.1535 H       1  UNL1        0.0233
     54 C          -1.4204   -2.0454   21.4974 C.3     1  UNL1       -0.0287
     55 H          -1.3778   -1.5537   22.4725 H       1  UNL1        0.0311
     56 H          -2.1280   -1.4950   20.8748 H       1  UNL1        0.0311
     57 C          -1.9145   -3.4797   21.6936 C.3     1  UNL1       -0.0612
     58 H          -2.0649   -3.9722   20.7361 H       1  UNL1        0.0233
     59 H          -2.8590   -3.4854   22.2343 H       1  UNL1        0.0233
     60 H          -1.1870   -4.0556   22.2629 H       1  UNL1        0.0233
@<TRIPOS>BOND
     1    36    34    1
     2    34    35    1
     3    34    37    1
     4    34    31    1
     5    52    50    1
     6     6     3    1
     7    32    31    1
     8    33    31    1
     9    31    23    1
    10    50    53    1
    11    50    51    1
    12    50    47    1
    13     3     5    1
    14     3     4    1
    15     3     7    1
    16    49    47    1
    17     9     8    1
    18    48    47    1
    19    12    11    1
    20    47    39    1
    21     8     7    2
    22     8    10    1
    23    22    21    1
    24     7     1    1
    25    23    21   ar
    26    23    15   ar
    27     1    15    1
    28    21    19   ar
    29    10    11    1
    30    10     2    1
    31    11    13    1
    32    11    14    1
    33    15    16   ar
    34     2    38    1
    35    39    38   ar
    36    39    40   ar
    37    41    40    1
    38    19    20    1
    39    19    17   ar
    40    38    46   ar
    41    30    27    1
    42    16    17   ar
    43    16    24    1
    44    40    42   ar
    45    25    24    1
    46    17    18    1
    47    24    27    1
    48    24    26    1
    49    27    28    1
    50    27    29    1
    51    58    57    1
    52    46    54    1
    53    46    44   ar
    54    56    54    1
    55    42    44   ar
    56    42    43    1
    57    54    57    1
    58    54    55    1
    59    44    45    1
    60    57    59    1
    61    57    60    1
