@<TRIPOS>MOLECULE
6,14
 60 61 0 0 0
SMALL
GASTEIGER

@<TRIPOS>ATOM
      1 C           3.5076    5.4760    1.9277 C.3     1  UNL1       -0.0359
      2 H           3.2800    5.6876    0.8834 H       1  UNL1        0.0255
      3 H           4.5499    5.1639    1.9809 H       1  UNL1        0.0255
      4 H           3.3889    6.3878    2.5065 H       1  UNL1        0.0255
      5 C           2.6117    4.3612    2.4242 C.3     1  UNL1        0.0968
      6 N           1.7264    4.5674    3.3738 N.pl3   1  UNL1       -0.2372
      7 C           2.8451    3.1290    1.8050 C.2     1  UNL1       -0.0383
      8 H           3.4995    3.1648    0.9451 H       1  UNL1        0.0610
      9 C           2.5160    1.8529    2.2563 C.2     1  UNL1        0.0264
     10 C           3.1627    0.7263    1.4777 C.3     1  UNL1       -0.0248
     11 H           3.2052   -0.1963    2.0505 H       1  UNL1        0.0290
     12 H           4.1696    0.9963    1.1665 H       1  UNL1        0.0290
     13 H           2.5767    0.5466    0.5755 H       1  UNL1        0.0290
     14 N           1.7371    1.5931    3.2919 N.pl3   1  UNL1       -0.2193
     15 C           1.7223    5.8271    4.0277 C.ar    1  UNL1        0.0551
     16 C           2.4699    5.9689    5.2076 C.ar    1  UNL1       -0.0248
     17 C           2.4418    7.1776    5.8831 C.ar    1  UNL1       -0.0568
     18 H           3.0057    7.3027    6.7937 H       1  UNL1        0.0621
     19 C           1.7012    8.2384    5.3956 C.ar    1  UNL1       -0.0611
     20 H           1.6825    9.1751    5.9331 H       1  UNL1        0.0618
     21 C           1.0043    8.1100    4.2095 C.ar    1  UNL1       -0.0568
     22 H           0.4584    8.9576    3.8275 H       1  UNL1        0.0621
     23 C           1.0144    6.9169    3.5018 C.ar    1  UNL1       -0.0248
     24 C           3.2833    4.7895    5.6714 C.3     1  UNL1       -0.0287
     25 H           2.6004    3.9324    5.7507 H       1  UNL1        0.0311
     26 H           4.0139    4.5490    4.8903 H       1  UNL1        0.0311
     27 C           4.0221    4.9596    6.9909 C.3     1  UNL1       -0.0612
     28 H           4.7508    5.7653    6.9298 H       1  UNL1        0.0233
     29 H           4.5541    4.0408    7.2303 H       1  UNL1        0.0233
     30 H           3.3319    5.1709    7.8047 H       1  UNL1        0.0233
     31 C           0.3360    6.7725    2.1658 C.3     1  UNL1       -0.0287
     32 H           1.0920    6.8760    1.3799 H       1  UNL1        0.0311
     33 H          -0.0534    5.7534    2.0972 H       1  UNL1        0.0311
     34 C          -0.7810    7.7748    1.8989 C.3     1  UNL1       -0.0612
     35 H          -1.2909    7.5235    0.9702 H       1  UNL1        0.0233
     36 H          -0.3881    8.7835    1.7935 H       1  UNL1        0.0233
     37 H          -1.5082    7.7664    2.7077 H       1  UNL1        0.0233
     38 C           1.8293    0.2984    3.8728 C.ar    1  UNL1        0.0596
     39 C           1.0101   -0.7707    3.4721 C.ar    1  UNL1       -0.0244
     40 C           1.1257   -1.9900    4.1222 C.ar    1  UNL1       -0.0567
     41 H           0.4988   -2.8155    3.8254 H       1  UNL1        0.0621
     42 C           2.0461   -2.1793    5.1366 C.ar    1  UNL1       -0.0611
     43 H           2.1172   -3.1361    5.6324 H       1  UNL1        0.0618
     44 C           2.8868   -1.1446    5.4912 C.ar    1  UNL1       -0.0567
     45 H           3.6300   -1.2896    6.2627 H       1  UNL1        0.0621
     46 C           2.8010    0.0891    4.8631 C.ar    1  UNL1       -0.0244
     47 C           0.0691   -0.5909    2.3113 C.3     1  UNL1       -0.0287
     48 H          -0.2966    0.4371    2.3316 H       1  UNL1        0.0311
     49 H           0.6384   -0.7106    1.3831 H       1  UNL1        0.0311
     50 C          -1.1134   -1.5530    2.2820 C.3     1  UNL1       -0.0612
     51 H          -0.7945   -2.5674    2.0528 H       1  UNL1        0.0233
     52 H          -1.8188   -1.2455    1.5134 H       1  UNL1        0.0233
     53 H          -1.6294   -1.5599    3.2397 H       1  UNL1        0.0233
     54 C           3.7942    1.1563    5.2359 C.3     1  UNL1       -0.0287
     55 H           3.4210    2.1323    4.9265 H       1  UNL1        0.0311
     56 H           3.9291    1.1620    6.3210 H       1  UNL1        0.0311
     57 C           5.1542    0.9149    4.5791 C.3     1  UNL1       -0.0612
     58 H           5.0741    0.9753    3.4972 H       1  UNL1        0.0233
     59 H           5.5360   -0.0701    4.8401 H       1  UNL1        0.0233
     60 H           5.8709    1.6632    4.9125 H       1  UNL1        0.0233
@<TRIPOS>BOND
     1    13    10    1
     2     2     1    1
     3     8     7    1
     4    35    34    1
     5    12    10    1
     6    32    31    1
     7    49    47    1
     8    10    11    1
     9    10     9    1
    10    52    50    1
    11    36    34    1
    12     7     9    2
    13     7     5    1
    14    34    31    1
    15    34    37    1
    16     1     3    1
    17     1     5    1
    18     1     4    1
    19    51    50    1
    20    33    31    1
    21    31    23    1
    22     9    14    1
    23    50    47    1
    24    50    53    1
    25    47    48    1
    26    47    39    1
    27     5     6    1
    28    14    38    1
    29     6    15    1
    30    39    38   ar
    31    39    40   ar
    32    58    57    1
    33    23    15   ar
    34    23    21   ar
    35    41    40    1
    36    22    21    1
    37    38    46   ar
    38    15    16   ar
    39    40    42   ar
    40    21    19   ar
    41    57    59    1
    42    57    60    1
    43    57    54    1
    44    46    54    1
    45    46    44   ar
    46    26    24    1
    47    55    54    1
    48    42    44   ar
    49    42    43    1
    50    16    24    1
    51    16    17   ar
    52    54    56    1
    53    19    17   ar
    54    19    20    1
    55    44    45    1
    56    24    25    1
    57    24    27    1
    58    17    18    1
    59    28    27    1
    60    27    29    1
    61    27    30    1
