@<TRIPOS>MOLECULE
13,31
 48 49 0 0 0
SMALL
GASTEIGER

@<TRIPOS>ATOM
      1 C           9.7642   18.5639    7.4807 C.3     1  UNL1       -0.0248
      2 H           9.2822   19.4304    7.9308 H       1  UNL1        0.0290
      3 H          10.8383   18.7330    7.4438 H       1  UNL1        0.0290
      4 H           9.5777   17.7076    8.1292 H       1  UNL1        0.0290
      5 C           9.2241   18.2991    6.0930 C.2     1  UNL1        0.0264
      6 C          10.1245   17.7334    5.1926 C.2     1  UNL1       -0.0383
      7 H          11.1413   17.6362    5.5446 H       1  UNL1        0.0610
      8 C           9.8317   17.0963    3.9845 C.3     1  UNL1        0.0968
      9 C          10.9022   16.1807    3.4372 C.3     1  UNL1       -0.0359
     10 H          10.5015   15.1815    3.2670 H       1  UNL1        0.0255
     11 H          11.7429   16.1084    4.1227 H       1  UNL1        0.0255
     12 H          11.2643   16.5539    2.4803 H       1  UNL1        0.0255
     13 N           7.9516   18.5461    5.8350 N.pl3   1  UNL1       -0.2193
     14 C           7.0995   18.6651    6.9617 C.ar    1  UNL1        0.0591
     15 C           6.7255   17.4970    7.6458 C.ar    1  UNL1       -0.0272
     16 C           5.8476   17.5782    8.7169 C.ar    1  UNL1       -0.0570
     17 H           5.5614   16.6672    9.2241 H       1  UNL1        0.0621
     18 C           5.3551   18.7937    9.1468 C.ar    1  UNL1       -0.0611
     19 H           4.6746   18.8436    9.9836 H       1  UNL1        0.0618
     20 C           5.7638   19.9468    8.5063 C.ar    1  UNL1       -0.0570
     21 H           5.4126   20.9090    8.8513 H       1  UNL1        0.0621
     22 C           6.6344   19.9015    7.4272 C.ar    1  UNL1       -0.0272
     23 C           7.2614   16.1391    7.2843 C.3     1  UNL1       -0.0379
     24 H           7.9292   16.1777    6.4298 H       1  UNL1        0.0278
     25 H           6.4457   15.4512    7.0602 H       1  UNL1        0.0278
     26 H           7.8151   15.7234    8.1278 H       1  UNL1        0.0278
     27 C           7.0672   21.1905    6.8007 C.3     1  UNL1       -0.0379
     28 H           6.3267   21.5135    6.0697 H       1  UNL1        0.0278
     29 H           8.0170   21.0753    6.2879 H       1  UNL1        0.0278
     30 H           7.1614   21.9663    7.5590 H       1  UNL1        0.0278
     31 N           8.6936   17.2208    3.3370 N.pl3   1  UNL1       -0.2372
     32 C           8.4611   16.3303    2.2599 C.ar    1  UNL1        0.0546
     33 C           7.7938   15.1269    2.5348 C.ar    1  UNL1       -0.0276
     34 C           7.5222   14.2409    1.5057 C.ar    1  UNL1       -0.0570
     35 H           7.0069   13.3167    1.7270 H       1  UNL1        0.0621
     36 C           7.9071   14.5232    0.2082 C.ar    1  UNL1       -0.0611
     37 H           7.6892   13.8274   -0.5881 H       1  UNL1        0.0618
     38 C           8.5819   15.6976   -0.0562 C.ar    1  UNL1       -0.0570
     39 H           8.9012   15.9216   -1.0642 H       1  UNL1        0.0621
     40 C           8.8759   16.6049    0.9535 C.ar    1  UNL1       -0.0276
     41 C           7.3957   14.7956    3.9420 C.3     1  UNL1       -0.0379
     42 H           6.7686   13.9070    3.9680 H       1  UNL1        0.0278
     43 H           6.8466   15.6256    4.3859 H       1  UNL1        0.0278
     44 H           8.2783   14.6068    4.5567 H       1  UNL1        0.0278
     45 C           9.6547   17.8376    0.6040 C.3     1  UNL1       -0.0379
     46 H           9.6585   18.5462    1.4251 H       1  UNL1        0.0278
     47 H           9.2236   18.3178   -0.2720 H       1  UNL1        0.0278
     48 H          10.6852   17.5737    0.3578 H       1  UNL1        0.0278
@<TRIPOS>BOND
     1    39    38    1
     2    37    36    1
     3    47    45    1
     4    38    36   ar
     5    38    40   ar
     6    36    34   ar
     7    48    45    1
     8    45    40    1
     9    45    46    1
    10    40    32   ar
    11    34    35    1
    12    34    33   ar
    13    32    33   ar
    14    32    31    1
    15    12     9    1
    16    33    41    1
    17    10     9    1
    18    31     8    1
    19     9     8    1
    20     9    11    1
    21    41    42    1
    22    41    43    1
    23    41    44    1
    24     8     6    1
    25     6     7    1
    26     6     5    2
    27    13     5    1
    28    13    14    1
    29    28    27    1
    30     5     1    1
    31    29    27    1
    32    24    23    1
    33    27    22    1
    34    27    30    1
    35    14    22   ar
    36    14    15   ar
    37    25    23    1
    38    23    15    1
    39    23    26    1
    40    22    20   ar
    41     3     1    1
    42     1     2    1
    43     1     4    1
    44    15    16   ar
    45    20    21    1
    46    20    18   ar
    47    16    18   ar
    48    16    17    1
    49    18    19    1
