@<TRIPOS>MOLECULE
1,2
 48 49 0 0 0
SMALL
GASTEIGER

@<TRIPOS>ATOM
      1 N           3.1709   11.9561    7.6202 N.pl3   1  UNL1       -0.2193
      2 N           1.4814   14.3120    8.1404 N.pl3   1  UNL1       -0.2372
      3 C           1.4414   14.9815   10.5078 C.3     1  UNL1       -0.0359
      4 H           2.1958   15.7234   10.7689 H       1  UNL1        0.0255
      5 H           1.2690   14.3600   11.3842 H       1  UNL1        0.0255
      6 H           0.5183   15.4981   10.2563 H       1  UNL1        0.0255
      7 C           1.9434   14.1400    9.3563 C.3     1  UNL1        0.0968
      8 C           2.8744   13.1586    9.6966 C.2     1  UNL1       -0.0383
      9 H           3.1730   13.1414   10.7352 H       1  UNL1        0.0610
     10 C           3.3564   12.1080    8.9199 C.2     1  UNL1        0.0264
     11 C           4.0917   11.0523    9.7199 C.3     1  UNL1       -0.0248
     12 H           4.2630   10.1459    9.1470 H       1  UNL1        0.0290
     13 H           3.5105   10.7981   10.6047 H       1  UNL1        0.0290
     14 H           5.0504   11.4434   10.0563 H       1  UNL1        0.0290
     15 C           0.3648   15.1534    7.9313 C.ar    1  UNL1        0.0546
     16 C          -0.9068   14.5586    7.8816 C.ar    1  UNL1       -0.0276
     17 C          -2.0067   15.3355    7.5620 C.ar    1  UNL1       -0.0570
     18 H          -2.9838   14.8754    7.5118 H       1  UNL1        0.0621
     19 C          -1.8696   16.6912    7.3186 C.ar    1  UNL1       -0.0611
     20 H          -2.7333   17.2863    7.0599 H       1  UNL1        0.0618
     21 C          -0.6277   17.2850    7.4385 C.ar    1  UNL1       -0.0570
     22 H          -0.5222   18.3507    7.2907 H       1  UNL1        0.0621
     23 C           0.4958   16.5363    7.7607 C.ar    1  UNL1       -0.0276
     24 C           1.8159   17.2122    7.9767 C.3     1  UNL1       -0.0379
     25 H           1.8910   17.5499    9.0117 H       1  UNL1        0.0278
     26 H           1.9151   18.0844    7.3351 H       1  UNL1        0.0278
     27 H           2.6318   16.5209    7.7840 H       1  UNL1        0.0278
     28 C          -1.0484   13.1026    8.2040 C.3     1  UNL1       -0.0379
     29 H          -0.3227   12.5191    7.6321 H       1  UNL1        0.0278
     30 H          -2.0486   12.7476    7.9691 H       1  UNL1        0.0278
     31 H          -0.8537   12.9295    9.2641 H       1  UNL1        0.0278
     32 C           3.6860   10.7943    6.9900 C.ar    1  UNL1        0.0591
     33 C           5.0570   10.6313    6.7501 C.ar    1  UNL1       -0.0272
     34 C           5.4956    9.4956    6.0806 C.ar    1  UNL1       -0.0570
     35 H           6.5524    9.3804    5.8850 H       1  UNL1        0.0621
     36 C           4.6107    8.5159    5.6772 C.ar    1  UNL1       -0.0611
     37 H           4.9680    7.6406    5.1553 H       1  UNL1        0.0618
     38 C           3.2639    8.6539    5.9641 C.ar    1  UNL1       -0.0570
     39 H           2.5709    7.8753    5.6775 H       1  UNL1        0.0621
     40 C           2.7906    9.7753    6.6238 C.ar    1  UNL1       -0.0272
     41 C           6.0700   11.6248    7.2387 C.3     1  UNL1       -0.0379
     42 H           5.6087   12.5897    7.4208 H       1  UNL1        0.0278
     43 H           6.8738   11.7404    6.5148 H       1  UNL1        0.0278
     44 H           6.5177   11.2689    8.1674 H       1  UNL1        0.0278
     45 C           1.3351    9.9078    6.9588 C.3     1  UNL1       -0.0379
     46 H           1.1981    9.9693    8.0392 H       1  UNL1        0.0278
     47 H           0.7710    9.0575    6.5823 H       1  UNL1        0.0278
     48 H           0.9310   10.8259    6.5160 H       1  UNL1        0.0278
@<TRIPOS>BOND
     1    37    36    1
     2    36    38   ar
     3    36    34   ar
     4    39    38    1
     5    35    34    1
     6    38    40   ar
     7    34    33   ar
     8    43    41    1
     9    48    45    1
    10    47    45    1
    11    40    45    1
    12    40    32   ar
    13    33    32   ar
    14    33    41    1
    15    45    46    1
    16    32     1    1
    17    20    19    1
    18    41    42    1
    19    41    44    1
    20    22    21    1
    21    19    21   ar
    22    19    17   ar
    23    26    24    1
    24    21    23   ar
    25    18    17    1
    26    17    16   ar
    27     1    10    1
    28    29    28    1
    29    23    15   ar
    30    23    24    1
    31    27    24    1
    32    16    15   ar
    33    16    28    1
    34    15     2    1
    35    30    28    1
    36    24    25    1
    37     2     7    1
    38    28    31    1
    39    10     8    2
    40    10    11    1
    41    12    11    1
    42     7     8    1
    43     7     3    1
    44     8     9    1
    45    11    14    1
    46    11    13    1
    47     6     3    1
    48     3     4    1
    49     3     5    1
