@<TRIPOS>MOLECULE
1,28
 52 53 0 0 0
SMALL
GASTEIGER

@<TRIPOS>ATOM
      1 N          10.2485    5.4871    3.5622 N.pl3   1  UNL1       -0.2125
      2 C          11.1886    7.7402    3.4493 C.3     1  UNL1       -0.0248
      3 H          12.0409    7.4251    4.0498 H       1  UNL1        0.0290
      4 H          10.9094    8.7496    3.7414 H       1  UNL1        0.0290
      5 H          11.5011    7.7590    2.4055 H       1  UNL1        0.0290
      6 C          10.0304    6.7844    3.6296 C.2     1  UNL1        0.0266
      7 C           8.7900    7.3759    3.8499 C.2     1  UNL1       -0.0383
      8 H           8.7900    8.4569    3.8498 H       1  UNL1        0.0610
      9 C          11.5488    5.1026    3.1624 C.ar    1  UNL1        0.1363
     10 C          11.8883    5.1360    1.8013 C.ar    1  UNL1        0.1465
     11 C          13.1352    4.6997    1.3744 C.ar    1  UNL1       -0.0178
     12 H          13.3961    4.7025    0.3286 H       1  UNL1        0.0655
     13 C          14.0581    4.2564    2.3020 C.ar    1  UNL1       -0.0547
     14 H          15.0228    3.9059    1.9685 H       1  UNL1        0.0620
     15 C          13.7721    4.2856    3.6528 C.ar    1  UNL1       -0.0178
     16 H          14.5238    3.9682    4.3565 H       1  UNL1        0.0655
     17 C          12.5305    4.7299    4.0901 C.ar    1  UNL1        0.1465
     18 O          10.9246    5.6424    0.9694 O.3     1  UNL1       -0.4931
     19 C          11.2076    5.7223   -0.4035 C.3     1  UNL1        0.0789
     20 H          12.0808    6.3547   -0.5990 H       1  UNL1        0.0660
     21 H          10.3302    6.1748   -0.8634 H       1  UNL1        0.0660
     22 H          11.3701    4.7319   -0.8400 H       1  UNL1        0.0660
     23 O          12.1950    4.8752    5.4085 O.3     1  UNL1       -0.4931
     24 C          13.2094    4.7032    6.3661 C.3     1  UNL1        0.0789
     25 H          13.5712    3.6711    6.3952 H       1  UNL1        0.0660
     26 H          12.7596    4.9506    7.3270 H       1  UNL1        0.0660
     27 H          14.0525    5.3779    6.1801 H       1  UNL1        0.0660
     28 N           7.3318    5.4870    4.1380 N.pl3   1  UNL1       -0.2307
     29 C           6.3915    7.7401    4.2505 C.3     1  UNL1       -0.0359
     30 H           5.5392    7.4250    3.6499 H       1  UNL1        0.0255
     31 H           6.6707    8.7495    3.9584 H       1  UNL1        0.0255
     32 H           6.0788    7.7590    5.2942 H       1  UNL1        0.0255
     33 C           7.5497    6.7843    4.0704 C.3     1  UNL1        0.0971
     34 C           6.0314    5.1025    4.5378 C.ar    1  UNL1        0.1321
     35 C           5.6919    5.1360    5.8989 C.ar    1  UNL1        0.1461
     36 C           4.4450    4.6997    6.3258 C.ar    1  UNL1       -0.0178
     37 H           4.1842    4.7026    7.3716 H       1  UNL1        0.0655
     38 C           3.5221    4.2564    5.3983 C.ar    1  UNL1       -0.0547
     39 H           2.5574    3.9060    5.7318 H       1  UNL1        0.0620
     40 C           3.8081    4.2856    4.0475 C.ar    1  UNL1       -0.0178
     41 H           3.0563    3.9682    3.3439 H       1  UNL1        0.0655
     42 C           5.0497    4.7299    3.6101 C.ar    1  UNL1        0.1461
     43 O           6.6556    5.6424    6.7307 O.3     1  UNL1       -0.4931
     44 C           6.3727    5.7224    8.1037 C.3     1  UNL1        0.0789
     45 H           5.4995    6.3548    8.2991 H       1  UNL1        0.0660
     46 H           7.2501    6.1750    8.5635 H       1  UNL1        0.0660
     47 H           6.2102    4.7320    8.5401 H       1  UNL1        0.0660
     48 O           5.3850    4.8751    2.2917 O.3     1  UNL1       -0.4931
     49 C           4.3706    4.7030    1.3341 C.3     1  UNL1        0.0789
     50 H           4.0088    3.6710    1.3051 H       1  UNL1        0.0660
     51 H           4.8203    4.9504    0.3732 H       1  UNL1        0.0660
     52 H           3.5276    5.3778    1.5202 H       1  UNL1        0.0660
@<TRIPOS>BOND
     1    21    19    1
     2    22    19    1
     3    20    19    1
     4    19    18    1
     5    12    11    1
     6    51    49    1
     7    18    10    1
     8    50    49    1
     9    49    52    1
    10    49    48    1
    11    11    10   ar
    12    11    13   ar
    13    10     9   ar
    14    14    13    1
    15    48    42    1
    16    13    15   ar
    17     5     2    1
    18     9     1    1
    19     9    17   ar
    20    41    40    1
    21     2     6    1
    22     2     4    1
    23     2     3    1
    24     1     6    1
    25    42    40   ar
    26    42    34   ar
    27     6     7    2
    28    30    29    1
    29    15    17   ar
    30    15    16    1
    31     8     7    1
    32     7    33    1
    33    31    29    1
    34    40    38   ar
    35    33    28    1
    36    33    29    1
    37    17    23    1
    38    28    34    1
    39    29    32    1
    40    34    35   ar
    41    38    39    1
    42    38    36   ar
    43    23    24    1
    44    35    36   ar
    45    35    43    1
    46    27    24    1
    47    36    37    1
    48    24    25    1
    49    24    26    1
    50    43    44    1
    51    44    45    1
    52    44    47    1
    53    44    46    1
