@<TRIPOS>MOLECULE
1,28
 52 53 0 0 0
SMALL
GASTEIGER

@<TRIPOS>ATOM
      1 N           1.3407    1.3975    3.5721 N.pl3   1  UNL1       -0.2307
      2 C           2.2838   -0.8597    3.5175 C.3     1  UNL1       -0.0359
      3 H           2.5602   -0.9618    2.4689 H       1  UNL1        0.0255
      4 H           2.0217   -1.8436    3.8981 H       1  UNL1        0.0255
      5 H           3.1528   -0.4932    4.0615 H       1  UNL1        0.0255
      6 C           1.1218    0.0978    3.6606 C.3     1  UNL1        0.0971
      7 C          -0.1217   -0.4936    3.8664 C.2     1  UNL1       -0.0383
      8 H          -0.1220   -1.5744    3.8655 H       1  UNL1        0.0610
      9 C           2.6346    1.7736    3.1369 C.ar    1  UNL1        0.1321
     10 C           2.9688    1.6372    1.7797 C.ar    1  UNL1        0.1461
     11 C           4.2122    2.0429    1.3147 C.ar    1  UNL1       -0.0178
     12 H           4.4695    1.9580    0.2714 H       1  UNL1        0.0655
     13 C           5.1369    2.5620    2.2005 C.ar    1  UNL1       -0.0547
     14 H           6.0995    2.8870    1.8365 H       1  UNL1        0.0620
     15 C           4.8541    2.6458    3.5499 C.ar    1  UNL1       -0.0178
     16 H           5.6055    3.0265    4.2220 H       1  UNL1        0.0655
     17 C           3.6161    2.2325    4.0269 C.ar    1  UNL1        0.1461
     18 O           1.9987    1.0753    0.9935 O.3     1  UNL1       -0.4931
     19 C           2.2563    0.9204   -0.3779 C.3     1  UNL1        0.0789
     20 H           2.4230    1.8836   -0.8708 H       1  UNL1        0.0660
     21 H           1.3646    0.4559   -0.7968 H       1  UNL1        0.0660
     22 H           3.1185    0.2681   -0.5561 H       1  UNL1        0.0660
     23 O           3.2789    2.2079    5.3514 O.3     1  UNL1       -0.4931
     24 C           4.2872    2.4827    6.2916 C.3     1  UNL1        0.0789
     25 H           5.1394    1.8045    6.1720 H       1  UNL1        0.0660
     26 H           3.8366    2.3205    7.2700 H       1  UNL1        0.0660
     27 H           4.6355    3.5179    6.2258 H       1  UNL1        0.0660
     28 N          -1.5829    1.3979    4.1636 N.pl3   1  UNL1       -0.2125
     29 C          -2.5274   -0.8587    4.2150 C.3     1  UNL1       -0.0248
     30 H          -2.8046   -0.9611    5.2634 H       1  UNL1        0.0290
     31 H          -2.2656   -1.8426    3.8342 H       1  UNL1        0.0290
     32 H          -3.3958   -0.4915    3.6707 H       1  UNL1        0.0290
     33 C          -1.3648    0.0982    4.0732 C.2     1  UNL1        0.0266
     34 C          -2.8766    1.7741    4.5993 C.ar    1  UNL1        0.1363
     35 C          -3.2102    1.6372    5.9566 C.ar    1  UNL1        0.1465
     36 C          -4.4533    2.0429    6.4224 C.ar    1  UNL1       -0.0178
     37 H          -4.7101    1.9576    7.4658 H       1  UNL1        0.0655
     38 C          -5.3784    2.5623    5.5372 C.ar    1  UNL1       -0.0547
     39 H          -6.3409    2.8872    5.9018 H       1  UNL1        0.0620
     40 C          -5.0964    2.6464    4.1878 C.ar    1  UNL1       -0.0178
     41 H          -5.8480    3.0273    3.5161 H       1  UNL1        0.0655
     42 C          -3.8586    2.2332    3.7100 C.ar    1  UNL1        0.1465
     43 O          -2.2397    1.0749    6.7421 O.3     1  UNL1       -0.4931
     44 C          -2.4969    0.9187    8.1134 C.3     1  UNL1        0.0789
     45 H          -2.6632    1.8815    8.6072 H       1  UNL1        0.0660
     46 H          -1.6053    0.4535    8.5315 H       1  UNL1        0.0660
     47 H          -3.3592    0.2664    8.2911 H       1  UNL1        0.0660
     48 O          -3.5221    2.2090    2.3853 O.3     1  UNL1       -0.4931
     49 C          -4.5308    2.4844    1.4455 C.3     1  UNL1        0.0789
     50 H          -5.3829    1.8060    1.5649 H       1  UNL1        0.0660
     51 H          -4.0803    2.3230    0.4670 H       1  UNL1        0.0660
     52 H          -4.8791    3.5195    1.5122 H       1  UNL1        0.0660
@<TRIPOS>BOND
     1    20    19    1
     2    21    19    1
     3    22    19    1
     4    19    18    1
     5    12    11    1
     6    51    49    1
     7    18    10    1
     8    11    10   ar
     9    11    13   ar
    10    49    52    1
    11    49    50    1
    12    49    48    1
    13    10     9   ar
    14    14    13    1
    15    13    15   ar
    16    48    42    1
    17     3     2    1
    18     9     1    1
    19     9    17   ar
    20    41    40    1
    21     2     6    1
    22     2     4    1
    23     2     5    1
    24    15    17   ar
    25    15    16    1
    26     1     6    1
    27     6     7    1
    28    32    29    1
    29    42    40   ar
    30    42    34   ar
    31    31    29    1
    32     8     7    1
    33     7    33    2
    34    17    23    1
    35    33    28    1
    36    33    29    1
    37    28    34    1
    38    40    38   ar
    39    29    30    1
    40    34    35   ar
    41    23    24    1
    42    38    39    1
    43    38    36   ar
    44    35    36   ar
    45    35    43    1
    46    25    24    1
    47    27    24    1
    48    24    26    1
    49    36    37    1
    50    43    44    1
    51    44    47    1
    52    44    46    1
    53    44    45    1
