@<TRIPOS>MOLECULE
1,2
 54 55 0 0 0
SMALL
GASTEIGER

@<TRIPOS>ATOM
      1 N           3.3280    6.6848    3.2485 N.pl3   1  UNL1       -0.2377
      2 N           5.2681    4.8967    2.1670 N.pl3   1  UNL1       -0.2192
      3 C           6.4269    3.5286    3.8633 C.3     1  UNL1       -0.0248
      4 H           5.9394    2.8404    4.5517 H       1  UNL1        0.0290
      5 H           7.2764    3.9722    4.3824 H       1  UNL1        0.0290
      6 H           6.7920    2.9703    3.0043 H       1  UNL1        0.0290
      7 C           5.4778    4.6284    3.4420 C.2     1  UNL1        0.0264
      8 C           4.8547    5.3248    4.4868 C.2     1  UNL1       -0.0383
      9 H           5.1774    5.0631    5.4846 H       1  UNL1        0.0610
     10 C           3.7816    6.2122    4.4019 C.3     1  UNL1        0.0968
     11 C           3.1681    6.6299    5.7190 C.3     1  UNL1       -0.0359
     12 H           2.4942    7.4743    5.5940 H       1  UNL1        0.0255
     13 H           3.9591    6.9077    6.4130 H       1  UNL1        0.0255
     14 H           2.6124    5.8041    6.1618 H       1  UNL1        0.0255
     15 C           2.0670    7.2841    3.1632 C.ar    1  UNL1        0.0488
     16 C           1.9266    8.5149    2.5127 C.ar    1  UNL1       -0.0391
     17 H           2.8173    9.0253    2.1540 H       1  UNL1        0.0637
     18 C           0.6782    9.0843    2.3534 C.ar    1  UNL1       -0.0600
     19 H           0.5881   10.0403    1.8591 H       1  UNL1        0.0618
     20 C          -0.4541    8.4404    2.8270 C.ar    1  UNL1       -0.0616
     21 H          -1.4280    8.8878    2.6989 H       1  UNL1        0.0618
     22 C          -0.3272    7.2165    3.4630 C.ar    1  UNL1       -0.0600
     23 H          -1.2052    6.7042    3.8289 H       1  UNL1        0.0618
     24 C           0.9170    6.6423    3.6347 C.ar    1  UNL1       -0.0391
     25 H           1.0114    5.6781    4.1137 H       1  UNL1        0.0637
     26 C           5.6429    3.9504    1.1814 C.ar    1  UNL1        0.0601
     27 C           6.7621    4.1667    0.3653 C.ar    1  UNL1       -0.0216
     28 C           7.0464    3.2565   -0.6439 C.ar    1  UNL1       -0.0565
     29 H           7.9112    3.4082   -1.2716 H       1  UNL1        0.0621
     30 C           6.2419    2.1551   -0.8541 C.ar    1  UNL1       -0.0611
     31 H           6.4695    1.4601   -1.6485 H       1  UNL1        0.0618
     32 C           5.1474    1.9369   -0.0366 C.ar    1  UNL1       -0.0565
     33 H           4.5320    1.0685   -0.2086 H       1  UNL1        0.0621
     34 C           4.8401    2.8064    0.9971 C.ar    1  UNL1       -0.0216
     35 C           7.6729    5.3543    0.5854 C.3     1  UNL1       -0.0197
     36 H           7.2360    5.9952    1.3688 H       1  UNL1        0.0344
     37 C           7.7962    6.1913   -0.6899 C.3     1  UNL1       -0.0586
     38 H           8.2836    5.6283   -1.4821 H       1  UNL1        0.0235
     39 H           8.3886    7.0831   -0.4960 H       1  UNL1        0.0235
     40 H           6.8064    6.4941   -1.0343 H       1  UNL1        0.0235
     41 C           9.0510    4.8918    1.0665 C.3     1  UNL1       -0.0586
     42 H           8.9626    4.3215    1.9884 H       1  UNL1        0.0235
     43 H           9.6909    5.7515    1.2530 H       1  UNL1        0.0235
     44 H           9.5297    4.2624    0.3197 H       1  UNL1        0.0235
     45 C           3.6415    2.5665    1.8920 C.3     1  UNL1       -0.0197
     46 H           3.8756    2.9490    2.8907 H       1  UNL1        0.0344
     47 C           3.2832    1.0879    2.0409 C.3     1  UNL1       -0.0586
     48 H           2.8428    0.6933    1.1286 H       1  UNL1        0.0235
     49 H           2.5540    0.9680    2.8398 H       1  UNL1        0.0235
     50 H           4.1638    0.4995    2.2892 H       1  UNL1        0.0235
     51 C           2.4392    3.3558    1.3630 C.3     1  UNL1       -0.0586
     52 H           2.6511    4.4298    1.3952 H       1  UNL1        0.0235
     53 H           1.5600    3.1578    1.9732 H       1  UNL1        0.0235
     54 H           2.2212    3.0703    0.3355 H       1  UNL1        0.0235
@<TRIPOS>BOND
     1    31    30    1
     2    38    37    1
     3    29    28    1
     4    40    37    1
     5    30    28   ar
     6    30    32   ar
     7    37    39    1
     8    37    35    1
     9    28    27   ar
    10    33    32    1
    11    32    34   ar
    12    44    41    1
    13    54    51    1
    14    27    35    1
    15    27    26   ar
    16    35    41    1
    17    35    36    1
    18    34    26   ar
    19    34    45    1
    20    41    43    1
    21    41    42    1
    22    48    47    1
    23    26     2    1
    24    51    52    1
    25    51    45    1
    26    51    53    1
    27    19    18    1
    28    45    47    1
    29    45    46    1
    30    47    50    1
    31    47    49    1
    32    17    16    1
    33     2     7    1
    34    18    16   ar
    35    18    20   ar
    36    16    15   ar
    37    21    20    1
    38    20    22   ar
    39     6     3    1
    40    15     1    1
    41    15    24   ar
    42     1    10    1
    43     7     3    1
    44     7     8    2
    45    22    24   ar
    46    22    23    1
    47    24    25    1
    48     3     5    1
    49     3     4    1
    50    10     8    1
    51    10    11    1
    52     8     9    1
    53    12    11    1
    54    11    14    1
    55    11    13    1
