@<TRIPOS>MOLECULE
2,5
 50 49 0 0 0
SMALL
GASTEIGER

@<TRIPOS>ATOM
      1 SI         10.2419    4.3202   12.0738 Si      1  UNL1        0.0000
      2 N           9.6410    7.2714   10.4699 N.3     1  UNL1        0.0000
      3 C           8.9484    6.5368   11.3242 C.3     1  UNL1        0.0000
      4 SI          7.5304    4.4520   10.4339 Si      1  UNL1        0.0000
      5 N           8.2978    7.2536   12.2254 N.3     1  UNL1        0.0000
      6 C          10.3499    6.7113    9.3372 C.3     1  UNL1        0.0000
      7 H          10.1859    5.6259    9.2994 H       1  UNL1        0.0000
      8 N           8.9077    5.1390   11.2790 N.3     1  UNL1        0.0000
      9 C          11.8466    7.0065    9.4782 C.3     1  UNL1        0.0000
     10 H          12.2298    6.5959   10.4098 H       1  UNL1        0.0000
     11 H          11.9994    8.0857    9.4776 H       1  UNL1        0.0000
     12 H          12.3986    6.5766    8.6453 H       1  UNL1        0.0000
     13 C           9.8218    7.3532    8.0506 C.3     1  UNL1        0.0000
     14 H           8.7549    7.1715    7.9458 H       1  UNL1        0.0000
     15 H          10.3387    6.9464    7.1843 H       1  UNL1        0.0000
     16 H           9.9928    8.4291    8.0903 H       1  UNL1        0.0000
     17 C           7.5584    6.6642   13.3230 C.3     1  UNL1        0.0000
     18 H           7.6667    5.5714   13.2961 H       1  UNL1        0.0000
     19 C           8.1160    7.2012   14.6448 C.3     1  UNL1        0.0000
     20 H           9.1714    6.9574   14.7388 H       1  UNL1        0.0000
     21 H           7.5757    6.7728   15.4861 H       1  UNL1        0.0000
     22 H           8.0025    8.2852   14.6677 H       1  UNL1        0.0000
     23 C           6.0789    7.0434   13.2019 C.3     1  UNL1        0.0000
     24 H           5.6761    6.7076   12.2489 H       1  UNL1        0.0000
     25 H           5.9817    8.1271   13.2653 H       1  UNL1        0.0000
     26 H           5.5047    6.5949   14.0097 H       1  UNL1        0.0000
     27 C           9.5403    2.9739   13.2270 C.3     1  UNL1        0.0000
     28 H           8.7985    3.3586   13.9196 H       1  UNL1        0.0000
     29 H          10.3423    2.5382   13.8138 H       1  UNL1        0.0000
     30 H           9.0829    2.1703   12.6598 H       1  UNL1        0.0000
     31 C          11.2475    5.5752   13.1013 C.3     1  UNL1        0.0000
     32 H          11.0469    5.4681   14.1635 H       1  UNL1        0.0000
     33 H          11.0037    6.5967   12.8198 H       1  UNL1        0.0000
     34 H          12.3154    5.4353   12.9597 H       1  UNL1        0.0000
     35 C          11.4092    3.4612   10.8286 C.3     1  UNL1        0.0000
     36 H          11.9400    4.1626   10.1931 H       1  UNL1        0.0000
     37 H          10.8732    2.7743   10.1830 H       1  UNL1        0.0000
     38 H          12.1531    2.8830   11.3685 H       1  UNL1        0.0000
     39 C           6.3209    3.5710   11.6220 C.3     1  UNL1        0.0000
     40 H           5.8493    4.2491   12.3256 H       1  UNL1        0.0000
     41 H           6.8157    2.7950   12.1955 H       1  UNL1        0.0000
     42 H           5.5312    3.0946   11.0486 H       1  UNL1        0.0000
     43 C           8.1568    3.1550    9.1847 C.3     1  UNL1        0.0000
     44 H           8.9141    3.5488    8.5143 H       1  UNL1        0.0000
     45 H           7.3310    2.8022    8.5757 H       1  UNL1        0.0000
     46 H           8.5752    2.2919    9.6913 H       1  UNL1        0.0000
     47 C           6.5927    5.8287    9.5024 C.3     1  UNL1        0.0000
     48 H           6.9026    6.8135    9.8431 H       1  UNL1        0.0000
     49 H           5.5198    5.7459    9.6518 H       1  UNL1        0.0000
     50 H           6.7734    5.7768    8.4326 H       1  UNL1        0.0000
@<TRIPOS>BOND
     1    15    13    1
     2    14    13    1
     3    13    16    1
     4    13     6    1
     5    50    47    1
     6    44    43    1
     7    45    43    1
     8    12     9    1
     9    43    46    1
    10    43     4    1
    11     7     6    1
    12     6     9    1
    13     6     2    1
    14    11     9    1
    15     9    10    1
    16    47    49    1
    17    47    48    1
    18    47     4    1
    19    37    35    1
    20    36    35    1
    21     4     8    1
    22     4    39    1
    23     2     3    1
    24    35    38    1
    25    35     1    1
    26    42    39    1
    27     8     3    1
    28     8     1    1
    29     3     5    1
    30    39    41    1
    31    39    40    1
    32     1    31    1
    33     1    27    1
    34     5    17    1
    35    24    23    1
    36    30    27    1
    37    33    31    1
    38    34    31    1
    39    31    32    1
    40    23    25    1
    41    23    17    1
    42    23    26    1
    43    27    29    1
    44    27    28    1
    45    18    17    1
    46    17    19    1
    47    19    22    1
    48    19    20    1
    49    19    21    1
