@<TRIPOS>MOLECULE
2,28
 50 49 0 0 0
SMALL
GASTEIGER

@<TRIPOS>ATOM
      1 SI          4.8464   10.6701    2.9125 Si      1  UNL1        0.0000
      2 N           6.6510    7.7692    2.2976 N.3     1  UNL1        0.0000
      3 C           6.3456    8.4658    3.3721 C.3     1  UNL1        0.0000
      4 N           6.3455    9.8926    3.3721 N.3     1  UNL1        0.0000
      5 C           7.0381    8.4142    1.0625 C.3     1  UNL1        0.0000
      6 H           7.1333    9.4989    1.2109 H       1  UNL1        0.0000
      7 C           5.9821    8.1663   -0.0222 C.3     1  UNL1        0.0000
      8 H           5.8778    7.0972   -0.1992 H       1  UNL1        0.0000
      9 H           5.0218    8.5663    0.2940 H       1  UNL1        0.0000
     10 H           6.2737    8.6493   -0.9532 H       1  UNL1        0.0000
     11 C           8.3917    7.8672    0.5967 C.3     1  UNL1        0.0000
     12 H           9.1674    8.1353    1.3086 H       1  UNL1        0.0000
     13 H           8.3433    6.7817    0.5230 H       1  UNL1        0.0000
     14 H           8.6533    8.2796   -0.3760 H       1  UNL1        0.0000
     15 C           4.3187   11.9444    4.2330 C.3     1  UNL1        0.0000
     16 H           3.3248   12.3193    4.0096 H       1  UNL1        0.0000
     17 H           4.9884   12.7976    4.2445 H       1  UNL1        0.0000
     18 H           4.2951   11.5280    5.2348 H       1  UNL1        0.0000
     19 C           4.9910   11.6277    1.2639 C.3     1  UNL1        0.0000
     20 H           4.0202   12.0246    0.9814 H       1  UNL1        0.0000
     21 H           5.3436   11.0096    0.4453 H       1  UNL1        0.0000
     22 H           5.6685   12.4697    1.3533 H       1  UNL1        0.0000
     23 C           3.4710    9.3574    2.7343 C.3     1  UNL1        0.0000
     24 H           2.6764    9.5170    3.4578 H       1  UNL1        0.0000
     25 H           3.0183    9.3883    1.7469 H       1  UNL1        0.0000
     26 H           3.8757    8.3626    2.8911 H       1  UNL1        0.0000
     27 SI          7.8446   10.6703    3.8318 Si      1  UNL1        0.0000
     28 N           6.0403    7.7691    4.4464 N.3     1  UNL1        0.0000
     29 C           5.6531    8.4140    5.6815 C.3     1  UNL1        0.0000
     30 H           5.5579    9.4987    5.5332 H       1  UNL1        0.0000
     31 C           6.7091    8.1661    6.7664 C.3     1  UNL1        0.0000
     32 H           6.8133    7.0971    6.9435 H       1  UNL1        0.0000
     33 H           7.6693    8.5662    6.4503 H       1  UNL1        0.0000
     34 H           6.4174    8.6492    7.6974 H       1  UNL1        0.0000
     35 C           4.2995    7.8670    6.1474 C.3     1  UNL1        0.0000
     36 H           3.5239    8.1352    5.4354 H       1  UNL1        0.0000
     37 H           4.3478    6.7815    6.2211 H       1  UNL1        0.0000
     38 H           4.0378    8.2794    7.1201 H       1  UNL1        0.0000
     39 C           8.3722   11.9446    2.5112 C.3     1  UNL1        0.0000
     40 H           9.3661   12.3195    2.7347 H       1  UNL1        0.0000
     41 H           7.7024   12.7977    2.4997 H       1  UNL1        0.0000
     42 H           8.3959   11.5281    1.5095 H       1  UNL1        0.0000
     43 C           7.6998   11.6278    5.4804 C.3     1  UNL1        0.0000
     44 H           8.6705   12.0248    5.7629 H       1  UNL1        0.0000
     45 H           7.3474   11.0095    6.2989 H       1  UNL1        0.0000
     46 H           7.0222   12.4696    5.3910 H       1  UNL1        0.0000
     47 C           9.2200    9.3575    4.0101 C.3     1  UNL1        0.0000
     48 H          10.0147    9.5174    3.2866 H       1  UNL1        0.0000
     49 H           9.6727    9.3885    4.9976 H       1  UNL1        0.0000
     50 H           8.8155    8.3627    3.8531 H       1  UNL1        0.0000
@<TRIPOS>BOND
     1    10     7    1
     2    14    11    1
     3     8     7    1
     4     7     9    1
     5     7     5    1
     6    21    19    1
     7    13    11    1
     8    11     5    1
     9    11    12    1
    10    20    19    1
    11     5     6    1
    12     5     2    1
    13    19    22    1
    14    19     1    1
    15    42    39    1
    16    25    23    1
    17     2     3    1
    18    41    39    1
    19    39    40    1
    20    39    27    1
    21    23    26    1
    22    23     1    1
    23    23    24    1
    24     1     4    1
    25     1    15    1
    26    48    47    1
    27     3     4    1
    28     3    28    1
    29     4    27    1
    30    27    47    1
    31    27    43    1
    32    50    47    1
    33    16    15    1
    34    47    49    1
    35    15    17    1
    36    15    18    1
    37    28    29    1
    38    46    43    1
    39    36    35    1
    40    43    44    1
    41    43    45    1
    42    30    29    1
    43    29    35    1
    44    29    31    1
    45    35    37    1
    46    35    38    1
    47    33    31    1
    48    31    32    1
    49    31    34    1
