@<TRIPOS>MOLECULE
3,4
 41 40 0 0 0
SMALL
GASTEIGER

@<TRIPOS>ATOM
      1 SI         10.8963   -1.1245    6.2874 Si      1  UNL1        0.0000
      2 SI         11.1504    1.1649    8.2634 Si      1  UNL1        0.0000
      3 N          10.3970    0.0881    3.8421 N.pl3   1  UNL1        0.0000
      4 N          11.1942    0.5344    6.6540 N.3     1  UNL1        0.0000
      5 C          10.0852    0.3106    2.4367 C.3     1  UNL1        0.0000
      6 C          11.2216   -0.1733    1.5174 C.3     1  UNL1        0.0000
      7 C           9.9480    1.8276    2.2257 C.3     1  UNL1        0.0000
      8 C           8.7430   -0.3208    2.0130 C.3     1  UNL1        0.0000
      9 C          10.4911   -1.1578    4.4021 C.2     1  UNL1        0.0000
     10 C          10.3913   -2.3596    3.8127 C.2     1  UNL1        0.0000
     11 C           9.3659   -1.8445    7.1920 C.3     1  UNL1        0.0000
     12 C          12.3937   -2.2607    6.6591 C.3     1  UNL1        0.0000
     13 C          12.1274    0.0331    9.4597 C.3     1  UNL1        0.0000
     14 C          11.9703    2.8965    8.2948 C.3     1  UNL1        0.0000
     15 C           9.3695    1.2651    8.9922 C.3     1  UNL1        0.0000
     16 H          11.6543   -0.9384    9.5529 H       1  UNL1        0.0000
     17 H          13.1472   -0.1290    9.1282 H       1  UNL1        0.0000
     18 H          12.1692    0.4741   10.4506 H       1  UNL1        0.0000
     19 H           9.1804    2.2221    9.4687 H       1  UNL1        0.0000
     20 H           8.6137    1.1262    8.2257 H       1  UNL1        0.0000
     21 H           9.2173    0.4950    9.7417 H       1  UNL1        0.0000
     22 H          12.3122    3.1771    7.3026 H       1  UNL1        0.0000
     23 H          11.2869    3.6587    8.6561 H       1  UNL1        0.0000
     24 H          12.8327    2.9004    8.9536 H       1  UNL1        0.0000
     25 H          10.5110   -3.2453    4.4126 H       1  UNL1        0.0000
     26 H          10.2052   -2.5455    2.7683 H       1  UNL1        0.0000
     27 H          10.8424    2.3325    2.5924 H       1  UNL1        0.0000
     28 H           9.8337    2.0411    1.1639 H       1  UNL1        0.0000
     29 H           9.0684    2.2121    2.7464 H       1  UNL1        0.0000
     30 H          11.4911   -1.2048    1.7219 H       1  UNL1        0.0000
     31 H          10.9167   -0.0928    0.4758 H       1  UNL1        0.0000
     32 H          12.0982    0.4511    1.6769 H       1  UNL1        0.0000
     33 H           7.9359    0.0412    2.6474 H       1  UNL1        0.0000
     34 H           8.5223   -0.0328    0.9871 H       1  UNL1        0.0000
     35 H           8.7557   -1.4031    2.0680 H       1  UNL1        0.0000
     36 H           9.5354   -1.8588    8.2624 H       1  UNL1        0.0000
     37 H           8.4736   -1.2536    7.0081 H       1  UNL1        0.0000
     38 H           9.1621   -2.8618    6.8753 H       1  UNL1        0.0000
     39 H          12.3374   -3.1917    6.1052 H       1  UNL1        0.0000
     40 H          13.3305   -1.7769    6.4034 H       1  UNL1        0.0000
     41 H          12.4266   -2.5084    7.7140 H       1  UNL1        0.0000
@<TRIPOS>BOND
     1    31     6    1
     2    34     8    1
     3    28     7    1
     4     6    32    1
     5     6    30    1
     6     6     5    1
     7     8    35    1
     8     8     5    1
     9     8    33    1
    10     7     5    1
    11     7    27    1
    12     7    29    1
    13     5     3    1
    14    26    10    1
    15    10     9    2
    16    10    25    1
    17     3     9    1
    18     9     1    1
    19    39    12    1
    20     1     4    1
    21     1    12    1
    22     1    11    1
    23    40    12    1
    24     4     2    1
    25    12    41    1
    26    38    11    1
    27    37    11    1
    28    11    36    1
    29    22    14    1
    30    20    15    1
    31     2    14    1
    32     2    15    1
    33     2    13    1
    34    14    23    1
    35    14    24    1
    36    15    19    1
    37    15    21    1
    38    17    13    1
    39    13    16    1
    40    13    18    1
