@<TRIPOS>MOLECULE
1,2
 40 40 0 0 0
SMALL
GASTEIGER

@<TRIPOS>ATOM
      1 N           3.3674    7.0725    3.6016 N.3     1  UNL1        0.0000
      2 N           4.3751    6.3042    1.7510 N.3     1  UNL1        0.0000
      3 C           4.2585    7.2705    2.6484 C.3     1  UNL1        0.0000
      4 C           5.0571    8.5142    2.6056 C.ar    1  UNL1        0.0000
      5 C           4.5086    9.6684    2.0587 C.ar    1  UNL1        0.0000
      6 C           5.2434   10.8404    2.0301 C.ar    1  UNL1        0.0000
      7 C           6.5268   10.8686    2.5503 C.ar    1  UNL1        0.0000
      8 C           7.0732    9.7212    3.1011 C.ar    1  UNL1        0.0000
      9 C           6.3427    8.5462    3.1312 C.ar    1  UNL1        0.0000
     10 SI          3.0558    8.1263    4.9544 Si      1  UNL1        0.0000
     11 SI          5.6166    6.3371    0.5109 Si      1  UNL1        0.0000
     12 C           2.1069    9.7045    4.4318 C.3     1  UNL1        0.0000
     13 C           1.9485    7.1045    6.1360 C.3     1  UNL1        0.0000
     14 C           4.6252    8.6277    5.9225 C.3     1  UNL1        0.0000
     15 C           7.3193    5.9131    1.2827 C.3     1  UNL1        0.0000
     16 C           5.2386    5.0465   -0.8457 C.3     1  UNL1        0.0000
     17 C           5.7178    8.0050   -0.4241 C.3     1  UNL1        0.0000
     18 H           1.6654   10.1779    5.3025 H       1  UNL1        0.0000
     19 H           2.7656   10.4318    3.9680 H       1  UNL1        0.0000
     20 H           1.3027    9.4904    3.7340 H       1  UNL1        0.0000
     21 H           1.2545    7.7606    6.6503 H       1  UNL1        0.0000
     22 H           1.3652    6.3434    5.6236 H       1  UNL1        0.0000
     23 H           2.5420    6.6148    6.9019 H       1  UNL1        0.0000
     24 H           4.3624    8.9371    6.9289 H       1  UNL1        0.0000
     25 H           5.1439    9.4558    5.4511 H       1  UNL1        0.0000
     26 H           5.3304    7.8063    6.0060 H       1  UNL1        0.0000
     27 H           7.8546    5.1967    0.6678 H       1  UNL1        0.0000
     28 H           7.9425    6.7984    1.3598 H       1  UNL1        0.0000
     29 H           7.2241    5.4903    2.2786 H       1  UNL1        0.0000
     30 H           5.8914    5.2520   -1.6872 H       1  UNL1        0.0000
     31 H           4.2203    5.1052   -1.2152 H       1  UNL1        0.0000
     32 H           5.4443    4.0270   -0.5368 H       1  UNL1        0.0000
     33 H           6.2122    7.8602   -1.3793 H       1  UNL1        0.0000
     34 H           6.2823    8.7525    0.1226 H       1  UNL1        0.0000
     35 H           4.7345    8.4192   -0.6274 H       1  UNL1        0.0000
     36 H           3.5122    9.6389    1.6439 H       1  UNL1        0.0000
     37 H           4.8151   11.7328    1.5989 H       1  UNL1        0.0000
     38 H           7.0993   11.7833    2.5266 H       1  UNL1        0.0000
     39 H           8.0716    9.7418    3.5113 H       1  UNL1        0.0000
     40 H           6.7583    7.6534    3.5695 H       1  UNL1        0.0000
@<TRIPOS>BOND
     1    30    16    1
     2    33    17    1
     3    31    16    1
     4    16    32    1
     5    16    11    1
     6    35    17    1
     7    17    34    1
     8    17    11    1
     9    11    15    1
    10    11     2    1
    11    27    15    1
    12    15    28    1
    13    15    29    1
    14    37     6    1
    15    36     5    1
    16     2     3    1
    17     6     5   ar
    18     6     7   ar
    19     5     4   ar
    20    38     7    1
    21     7     8   ar
    22     4     3    1
    23     4     9   ar
    24     3     1    1
    25     8     9   ar
    26     8    39    1
    27     9    40    1
    28     1    10    1
    29    20    12    1
    30    19    12    1
    31    12    10    1
    32    12    18    1
    33    10    14    1
    34    10    13    1
    35    25    14    1
    36    22    13    1
    37    14    26    1
    38    14    24    1
    39    13    21    1
    40    13    23    1
