@<TRIPOS>MOLECULE
3,4
 56 56 0 0 0
SMALL
GASTEIGER

@<TRIPOS>ATOM
      1 SI          0.7219    6.4450    2.4367 Si      1  UNL1        0.0000
      2 SI         -1.0813    1.3827    2.6863 Si      1  UNL1        0.0000
      3 N          -0.5928    5.6849    3.2680 N.3     1  UNL1        0.0000
      4 N          -1.3645    3.0591    3.1325 N.pl3   1  UNL1        0.0000
      5 C          -1.7909    5.9458    3.7717 C.3     1  UNL1        0.0000
      6 C          -2.7298    4.9099    3.8562 C.2     1  UNL1        0.0000
      7 C          -2.5310    3.5715    3.4790 C.2     1  UNL1        0.0000
      8 C          -2.1419    7.3250    4.3345 C.3     1  UNL1        0.0000
      9 C          -3.5577    7.4102    4.9141 C.3     1  UNL1        0.0000
     10 C          -1.1455    7.5491    5.4836 C.3     1  UNL1        0.0000
     11 C          -2.0034    8.4117    3.2663 C.3     1  UNL1        0.0000
     12 C          -3.7517    2.7271    3.5321 C.ar    1  UNL1        0.0000
     13 C          -4.7549    2.8529    2.5795 C.ar    1  UNL1        0.0000
     14 C          -5.8842    2.0567    2.6547 C.ar    1  UNL1        0.0000
     15 C          -6.0263    1.1484    3.6906 C.ar    1  UNL1        0.0000
     16 C          -5.0399    1.0423    4.6575 C.ar    1  UNL1        0.0000
     17 C          -3.9030    1.8269    4.5812 C.ar    1  UNL1        0.0000
     18 C           0.1280    6.8523    0.6603 C.3     1  UNL1        0.0000
     19 C           1.7568    7.8996    3.1322 C.3     1  UNL1        0.0000
     20 C           1.8799    4.9063    2.3143 C.3     1  UNL1        0.0000
     21 C          -2.4716    0.5815    1.6455 C.3     1  UNL1        0.0000
     22 C           0.4388    1.4956    1.5234 C.3     1  UNL1        0.0000
     23 C          -0.7790    0.3594    4.2757 C.3     1  UNL1        0.0000
     24 H          -3.7268    5.1372    4.1966 H       1  UNL1        0.0000
     25 H          -3.7103    8.4089    5.3191 H       1  UNL1        0.0000
     26 H          -4.3142    7.2427    4.1507 H       1  UNL1        0.0000
     27 H          -3.6956    6.6981    5.7236 H       1  UNL1        0.0000
     28 H          -1.3868    8.4678    6.0140 H       1  UNL1        0.0000
     29 H          -1.1984    6.7157    6.1896 H       1  UNL1        0.0000
     30 H          -0.1264    7.6157    5.1139 H       1  UNL1        0.0000
     31 H          -2.1996    9.3868    3.7061 H       1  UNL1        0.0000
     32 H          -1.0062    8.4212    2.8428 H       1  UNL1        0.0000
     33 H          -2.7196    8.2422    2.4649 H       1  UNL1        0.0000
     34 H          -4.6401    3.5658    1.7761 H       1  UNL1        0.0000
     35 H          -6.6568    2.1477    1.9057 H       1  UNL1        0.0000
     36 H          -6.9098    0.5301    3.7486 H       1  UNL1        0.0000
     37 H          -5.1578    0.3478    5.4758 H       1  UNL1        0.0000
     38 H          -3.1389    1.7730    5.3426 H       1  UNL1        0.0000
     39 H           0.9783    6.9897    0.0021 H       1  UNL1        0.0000
     40 H          -0.4802    6.0492    0.2561 H       1  UNL1        0.0000
     41 H          -0.4613    7.7608    0.6197 H       1  UNL1        0.0000
     42 H           2.6174    8.0682    2.4913 H       1  UNL1        0.0000
     43 H           1.2113    8.8367    3.1883 H       1  UNL1        0.0000
     44 H           2.1294    7.6657    4.1257 H       1  UNL1        0.0000
     45 H           2.4989    4.9294    1.4199 H       1  UNL1        0.0000
     46 H           2.5610    4.8502    3.1688 H       1  UNL1        0.0000
     47 H           1.2722    3.9888    2.2735 H       1  UNL1        0.0000
     48 H          -2.0889   -0.3007    1.1441 H       1  UNL1        0.0000
     49 H          -3.3197    0.2748    2.2467 H       1  UNL1        0.0000
     50 H          -2.8384    1.2588    0.8815 H       1  UNL1        0.0000
     51 H           0.5390    0.5725    0.9618 H       1  UNL1        0.0000
     52 H           0.3394    2.3019    0.7988 H       1  UNL1        0.0000
     53 H           1.3644    1.6329    2.0767 H       1  UNL1        0.0000
     54 H           0.1360   -0.2190    4.1943 H       1  UNL1        0.0000
     55 H          -0.6751    1.0066    5.1483 H       1  UNL1        0.0000
     56 H          -1.5924   -0.3353    4.4665 H       1  UNL1        0.0000
@<TRIPOS>BOND
     1    39    18    1
     2    40    18    1
     3    41    18    1
     4    18     1    1
     5    52    22    1
     6    50    21    1
     7    51    22    1
     8    48    21    1
     9    45    20    1
    10    22    53    1
    11    22     2    1
    12    21    49    1
    13    21     2    1
    14    34    13    1
    15    35    14    1
    16    47    20    1
    17    20     1    1
    18    20    46    1
    19     1    19    1
    20     1     3    1
    21    33    11    1
    22    42    19    1
    23    13    14   ar
    24    13    12   ar
    25    14    15   ar
    26     2     4    1
    27     2    23    1
    28    32    11    1
    29    19    43    1
    30    19    44    1
    31     4     7    1
    32    11    31    1
    33    11     8    1
    34     3     5    1
    35     7    12    1
    36     7     6    2
    37    12    17   ar
    38    15    36    1
    39    15    16   ar
    40     5     6    1
    41     5     8    1
    42     6    24    1
    43    26     9    1
    44    54    23    1
    45    23    56    1
    46    23    55    1
    47     8     9    1
    48     8    10    1
    49    17    16   ar
    50    17    38    1
    51    16    37    1
    52     9    25    1
    53     9    27    1
    54    30    10    1
    55    10    28    1
    56    10    29    1
