@<TRIPOS>MOLECULE
1,23
 34 35 0 0 0
SMALL
GASTEIGER

@<TRIPOS>ATOM
      1 N           1.3548    3.1921    1.9278 N.pl3   1  UNL1       -0.2180
      2 C           1.4766    1.9616    1.3349 C.ar    1  UNL1        0.0534
      3 C           0.5770    0.9444    1.7186 C.ar    1  UNL1       -0.0387
      4 H          -0.2181    1.1971    2.4195 H       1  UNL1        0.0637
      5 C           0.6758   -0.3250    1.1889 C.ar    1  UNL1       -0.0599
      6 H          -0.0271   -1.0880    1.4937 H       1  UNL1        0.0618
      7 C           1.6615   -0.6291    0.2602 C.ar    1  UNL1       -0.0616
      8 H           1.7347   -1.6239   -0.1515 H       1  UNL1        0.0618
      9 C           2.5458    0.3619   -0.1374 C.ar    1  UNL1       -0.0599
     10 H           3.3174    0.1339   -0.8594 H       1  UNL1        0.0618
     11 C           2.4612    1.6372    0.3824 C.ar    1  UNL1       -0.0387
     12 H           3.1703    2.3927    0.0760 H       1  UNL1        0.0637
     13 C           1.7116    4.3768    1.2675 C.2     1  UNL1        0.0466
     14 C           1.4806    4.5094   -0.2173 C.3     1  UNL1       -0.0231
     15 H           1.0477    3.5943   -0.6138 H       1  UNL1        0.0291
     16 H           2.4076    4.7210   -0.7510 H       1  UNL1        0.0291
     17 H           0.7910    5.3305   -0.4188 H       1  UNL1        0.0291
     18 C           2.1162    5.4280    2.0329 C.2     1  UNL1        0.0466
     19 C           2.3238    6.8049    1.4529 C.3     1  UNL1       -0.0231
     20 H           2.4246    7.5377    2.2498 H       1  UNL1        0.0291
     21 H           1.4678    7.0836    0.8374 H       1  UNL1        0.0291
     22 H           3.2106    6.8485    0.8196 H       1  UNL1        0.0291
     23 N           2.1593    5.2258    3.4204 N.pl3   1  UNL1       -0.2180
     24 C           2.9633    5.9404    4.2641 C.ar    1  UNL1        0.0534
     25 C           2.5590    6.0332    5.6139 C.ar    1  UNL1       -0.0387
     26 H           1.5920    5.6047    5.8837 H       1  UNL1        0.0637
     27 C           3.3373    6.6868    6.5452 C.ar    1  UNL1       -0.0599
     28 H           3.0042    6.7542    7.5719 H       1  UNL1        0.0618
     29 C           4.5383    7.2759    6.1749 C.ar    1  UNL1       -0.0616
     30 H           5.1447    7.7871    6.9065 H       1  UNL1        0.0618
     31 C           4.9429    7.2088    4.8507 C.ar    1  UNL1       -0.0599
     32 H           5.8751    7.6672    4.5517 H       1  UNL1        0.0618
     33 C           4.1771    6.5596    3.9045 C.ar    1  UNL1       -0.0387
     34 H           4.5207    6.5056    2.8826 H       1  UNL1        0.0637
@<TRIPOS>BOND
     1    10     9    1
     2    16    14    1
     3    15    14    1
     4    17    14    1
     5    14    13    1
     6     8     7    1
     7     9     7   ar
     8     9    11   ar
     9    12    11    1
    10     7     5   ar
    11    11     2   ar
    12    22    19    1
    13    21    19    1
    14     5     6    1
    15     5     3   ar
    16    13     1    1
    17    13    18    2
    18     2     3   ar
    19     2     1    1
    20    19    18    1
    21    19    20    1
    22     3     4    1
    23    18    23    1
    24    34    33    1
    25    23    24    1
    26    33    24   ar
    27    33    31   ar
    28    24    25   ar
    29    32    31    1
    30    31    29   ar
    31    25    26    1
    32    25    27   ar
    33    29    27   ar
    34    29    30    1
    35    27    28    1
