@<TRIPOS>MOLECULE
1,2
 83 86 0 0 0
SMALL
GASTEIGER

@<TRIPOS>ATOM
      1 N           8.0320   10.3447    4.2423 N.pl3   1  UNL1       -0.2028
      2 N           7.1297    8.1268    5.0360 N.pl3   1  UNL1       -0.2028
      3 P           6.9026    9.2493    3.9023 P.3     1  UNL1        0.1177
      4 C           6.2005    7.2245    5.5843 C.ar    1  UNL1        0.0611
      5 C           5.7378    7.4438    6.9016 C.ar    1  UNL1       -0.0216
      6 C           4.8707    6.5343    7.4863 C.ar    1  UNL1       -0.0565
      7 H           4.5079    6.7157    8.4874 H       1  UNL1        0.0621
      8 C           4.4451    5.4065    6.8122 C.ar    1  UNL1       -0.0611
      9 H           3.7597    4.7146    7.2786 H       1  UNL1        0.0618
     10 C           4.9071    5.1801    5.5323 C.ar    1  UNL1       -0.0565
     11 H           4.5774    4.3008    4.9993 H       1  UNL1        0.0621
     12 C           5.7837    6.0590    4.9125 C.ar    1  UNL1       -0.0216
     13 C           6.1394    8.6680    7.6937 C.3     1  UNL1       -0.0197
     14 H           6.8633    9.2474    7.0947 H       1  UNL1        0.0344
     15 C           4.9251    9.5576    7.9736 C.3     1  UNL1       -0.0586
     16 H           4.4513    9.8673    7.0447 H       1  UNL1        0.0235
     17 H           5.2321   10.4487    8.5180 H       1  UNL1        0.0235
     18 H           4.1869    9.0294    8.5739 H       1  UNL1        0.0235
     19 C           6.8243    8.2837    9.0084 C.3     1  UNL1       -0.0586
     20 H           6.1626    7.6952    9.6406 H       1  UNL1        0.0235
     21 H           7.1086    9.1799    9.5567 H       1  UNL1        0.0235
     22 H           7.7239    7.7042    8.8086 H       1  UNL1        0.0235
     23 C           6.2503    5.7502    3.5120 C.3     1  UNL1       -0.0197
     24 H           7.0385    6.4616    3.2560 H       1  UNL1        0.0344
     25 C           5.0932    5.9291    2.5271 C.3     1  UNL1       -0.0586
     26 H           4.3040    5.2081    2.7304 H       1  UNL1        0.0235
     27 H           5.4393    5.7886    1.5051 H       1  UNL1        0.0235
     28 H           4.6718    6.9290    2.6140 H       1  UNL1        0.0235
     29 C           6.8445    4.3461    3.3848 C.3     1  UNL1       -0.0586
     30 H           7.6474    4.1985    4.1042 H       1  UNL1        0.0235
     31 H           7.2521    4.2135    2.3846 H       1  UNL1        0.0235
     32 H           6.0925    3.5781    3.5484 H       1  UNL1        0.0235
     33 C           7.9767   11.6856    3.8013 C.ar    1  UNL1        0.0611
     34 C           7.2169   12.6311    4.5191 C.ar    1  UNL1       -0.0216
     35 C           7.1931   13.9513    4.0989 C.ar    1  UNL1       -0.0565
     36 H           6.6149   14.6749    4.6533 H       1  UNL1        0.0621
     37 C           7.8966   14.3641    2.9848 C.ar    1  UNL1       -0.0611
     38 H           7.8584   15.3950    2.6644 H       1  UNL1        0.0618
     39 C           8.6616   13.4456    2.2965 C.ar    1  UNL1       -0.0565
     40 H           9.2263   13.7681    1.4344 H       1  UNL1        0.0621
     41 C           8.7195   12.1157    2.6882 C.ar    1  UNL1       -0.0216
     42 C           9.5922   11.1685    1.8993 C.3     1  UNL1       -0.0197
     43 H           9.5374   10.1841    2.3751 H       1  UNL1        0.0344
     44 C           9.0957   11.0355    0.4580 C.3     1  UNL1       -0.0586
     45 H           8.0522   10.7283    0.4372 H       1  UNL1        0.0235
     46 H           9.6808   10.2880   -0.0743 H       1  UNL1        0.0235
     47 H           9.1843   11.9815   -0.0714 H       1  UNL1        0.0235
     48 C          11.0542   11.6221    1.9176 C.3     1  UNL1       -0.0586
     49 H          11.1778   12.5626    1.3859 H       1  UNL1        0.0235
     50 H          11.6830   10.8742    1.4379 H       1  UNL1        0.0235
     51 H          11.3961   11.7618    2.9408 H       1  UNL1        0.0235
     52 C           6.4936   12.2546    5.7898 C.3     1  UNL1       -0.0197
     53 H           6.4377   11.1597    5.8377 H       1  UNL1        0.0344
     54 C           7.3159   12.7549    6.9812 C.3     1  UNL1       -0.0586
     55 H           8.3359   12.3847    6.9122 H       1  UNL1        0.0235
     56 H           6.8754   12.4211    7.9190 H       1  UNL1        0.0235
     57 H           7.3450   13.8430    6.9840 H       1  UNL1        0.0235
     58 C           5.0709   12.8086    5.8707 C.3     1  UNL1       -0.0586
     59 H           5.0760   13.8914    5.9701 H       1  UNL1        0.0235
     60 H           4.5633   12.3979    6.7412 H       1  UNL1        0.0235
     61 H           4.4980   12.5483    4.9848 H       1  UNL1        0.0235
     62 C           5.2095    9.9187    3.7298 C.ar    1  UNL1        0.0126
     63 C           5.0303   10.9974    2.8669 C.ar    1  UNL1       -0.0512
     64 H           5.8861   11.4221    2.3612 H       1  UNL1        0.0625
     65 C           3.7671   11.5216    2.6619 C.ar    1  UNL1       -0.0611
     66 H           3.6357   12.3596    1.9927 H       1  UNL1        0.0618
     67 C           2.6738   10.9709    3.3127 C.ar    1  UNL1       -0.0617
     68 H           1.6870   11.3793    3.1511 H       1  UNL1        0.0618
     69 C           2.8478    9.8947    4.1665 C.ar    1  UNL1       -0.0611
     70 H           1.9967    9.4587    4.6692 H       1  UNL1        0.0618
     71 C           4.1107    9.3660    4.3738 C.ar    1  UNL1       -0.0512
     72 H           4.2407    8.5130    5.0227 H       1  UNL1        0.0625
     73 C           7.1874    8.6004    2.1893 C.ar    1  UNL1        0.0126
     74 C           6.2980    8.6803    1.1266 C.ar    1  UNL1       -0.0512
     75 H           5.3337    9.1506    1.2543 H       1  UNL1        0.0625
     76 C           6.6375    8.1512   -0.1080 C.ar    1  UNL1       -0.0611
     77 H           5.9375    8.2211   -0.9283 H       1  UNL1        0.0618
     78 C           7.8611    7.5323   -0.2910 C.ar    1  UNL1       -0.0617
     79 H           8.1198    7.1182   -1.2545 H       1  UNL1        0.0618
     80 C           8.7524    7.4428    0.7672 C.ar    1  UNL1       -0.0611
     81 H           9.7060    6.9554    0.6303 H       1  UNL1        0.0618
     82 C           8.4175    7.9764    1.9966 C.ar    1  UNL1       -0.0512
     83 H           9.1063    7.9044    2.8415 H       1  UNL1        0.0625
@<TRIPOS>BOND
     1    79    78    1
     2    77    76    1
     3    78    76   ar
     4    78    80   ar
     5    76    74   ar
     6    46    44    1
     7    47    44    1
     8    45    44    1
     9    44    42    1
    10    81    80    1
    11    80    82   ar
    12    74    75    1
    13    74    73   ar
    14    49    48    1
    15    40    39    1
    16    50    48    1
    17    27    25    1
    18    42    48    1
    19    42    43    1
    20    42    41    1
    21    48    51    1
    22    66    65    1
    23    82    73   ar
    24    82    83    1
    25    73     3    1
    26    39    41   ar
    27    39    37   ar
    28    64    63    1
    29    31    29    1
    30    25    28    1
    31    25    26    1
    32    25    23    1
    33    65    63   ar
    34    65    67   ar
    35    38    37    1
    36    41    33   ar
    37    63    62   ar
    38    37    35   ar
    39    68    67    1
    40    24    23    1
    41    67    69   ar
    42    29    23    1
    43    29    32    1
    44    29    30    1
    45    23    12    1
    46    62     3    1
    47    62    71   ar
    48    33     1    1
    49    33    34   ar
    50     3     1    1
    51     3     2    1
    52    35    34   ar
    53    35    36    1
    54    69    71   ar
    55    69    70    1
    56    71    72    1
    57    34    52    1
    58    12    10   ar
    59    12     4   ar
    60    61    58    1
    61    11    10    1
    62     2     4    1
    63    10     8   ar
    64     4     5   ar
    65    52    53    1
    66    52    58    1
    67    52    54    1
    68    58    59    1
    69    58    60    1
    70     8     9    1
    71     8     6   ar
    72     5     6   ar
    73     5    13    1
    74    55    54    1
    75    54    57    1
    76    54    56    1
    77    16    15    1
    78    14    13    1
    79     6     7    1
    80    13    15    1
    81    13    19    1
    82    15    17    1
    83    15    18    1
    84    22    19    1
    85    19    21    1
    86    19    20    1
