@<TRIPOS>MOLECULE
1,2
 83 86 0 0 0
SMALL
GASTEIGER

@<TRIPOS>ATOM
      1 N           7.9862   10.4748    4.1445 N.pl3   1  UNL1       -0.2028
      2 N           7.1386    8.2154    4.9428 N.pl3   1  UNL1       -0.2028
      3 P           6.8929    9.3408    3.8244 P.3     1  UNL1        0.1177
      4 C           6.2638    7.2824    5.5140 C.ar    1  UNL1        0.0611
      5 C           5.8844    6.0976    4.8540 C.ar    1  UNL1       -0.0216
      6 C           5.0671    5.1807    5.4984 C.ar    1  UNL1       -0.0565
      7 H           4.7621    4.2862    4.9763 H       1  UNL1        0.0621
      8 C           4.6351    5.3882    6.7925 C.ar    1  UNL1       -0.0611
      9 H           3.9991    4.6646    7.2805 H       1  UNL1        0.0618
     10 C           5.0233    6.5377    7.4526 C.ar    1  UNL1       -0.0565
     11 H           4.6823    6.7024    8.4644 H       1  UNL1        0.0621
     12 C           5.8247    7.4885    6.8406 C.ar    1  UNL1       -0.0216
     13 C           6.1825    8.7388    7.6127 C.3     1  UNL1       -0.0197
     14 H           6.8177    9.3724    6.9775 H       1  UNL1        0.0344
     15 C           4.9249    9.5351    7.9711 C.3     1  UNL1       -0.0586
     16 H           4.3765    9.8113    7.0731 H       1  UNL1        0.0235
     17 H           5.1970   10.4453    8.5021 H       1  UNL1        0.0235
     18 H           4.2641    8.9541    8.6106 H       1  UNL1        0.0235
     19 C           6.9748    8.3980    8.8779 C.3     1  UNL1       -0.0586
     20 H           6.4027    7.7438    9.5328 H       1  UNL1        0.0235
     21 H           7.2104    9.3068    9.4287 H       1  UNL1        0.0235
     22 H           7.9079    7.9030    8.6151 H       1  UNL1        0.0235
     23 C           6.3291    5.8177    3.4407 C.3     1  UNL1       -0.0197
     24 H           7.0931    6.5530    3.1784 H       1  UNL1        0.0344
     25 C           5.1478    5.9820    2.4823 C.3     1  UNL1       -0.0586
     26 H           4.3773    5.2442    2.6967 H       1  UNL1        0.0235
     27 H           5.4744    5.8570    1.4518 H       1  UNL1        0.0235
     28 H           4.7100    6.9731    2.5872 H       1  UNL1        0.0235
     29 C           6.9563    4.4315    3.2840 C.3     1  UNL1       -0.0586
     30 H           7.7709    4.2949    3.9921 H       1  UNL1        0.0235
     31 H           7.3554    4.3242    2.2771 H       1  UNL1        0.0235
     32 H           6.2259    3.6420    3.4434 H       1  UNL1        0.0235
     33 C           7.1930    8.7070    2.1058 C.ar    1  UNL1        0.0126
     34 C           6.3049    8.7746    1.0417 C.ar    1  UNL1       -0.0512
     35 H           5.3267    9.2140    1.1753 H       1  UNL1        0.0625
     36 C           6.6643    8.2734   -0.1989 C.ar    1  UNL1       -0.0611
     37 H           5.9647    8.3318   -1.0204 H       1  UNL1        0.0618
     38 C           7.9085    7.6985   -0.3888 C.ar    1  UNL1       -0.0617
     39 H           8.1830    7.3088   -1.3581 H       1  UNL1        0.0618
     40 C           8.7995    7.6215    0.6705 C.ar    1  UNL1       -0.0611
     41 H           9.7707    7.1685    0.5313 H       1  UNL1        0.0618
     42 C           8.4417    8.1233    1.9064 C.ar    1  UNL1       -0.0512
     43 H           9.1282    8.0538    2.7475 H       1  UNL1        0.0625
     44 C           5.1845    9.9761    3.6696 C.ar    1  UNL1        0.0126
     45 C           4.1095    9.3957    4.3289 C.ar    1  UNL1       -0.0512
     46 H           4.2686    8.5329    4.9585 H       1  UNL1        0.0625
     47 C           2.8357    9.9127    4.1636 C.ar    1  UNL1       -0.0611
     48 H           2.0021    9.4561    4.6775 H       1  UNL1        0.0618
     49 C           2.6287   11.0056    3.3388 C.ar    1  UNL1       -0.0617
     50 H           1.6336   11.4062    3.2117 H       1  UNL1        0.0618
     51 C           3.6989   11.5838    2.6738 C.ar    1  UNL1       -0.0611
     52 H           3.5406   12.4350    2.0273 H       1  UNL1        0.0618
     53 C           4.9728   11.0709    2.8359 C.ar    1  UNL1       -0.0512
     54 H           5.8115   11.5176    2.3205 H       1  UNL1        0.0625
     55 C           7.9100   11.8252    3.7593 C.ar    1  UNL1        0.0611
     56 C           8.6428   12.3053    2.6598 C.ar    1  UNL1       -0.0216
     57 C           8.5880   13.6527    2.3358 C.ar    1  UNL1       -0.0565
     58 H           9.1446   14.0165    1.4848 H       1  UNL1        0.0621
     59 C           7.8354   14.5383    3.0801 C.ar    1  UNL1       -0.0611
     60 H           7.8028   15.5850    2.8152 H       1  UNL1        0.0618
     61 C           7.1329   14.0733    4.1747 C.ar    1  UNL1       -0.0565
     62 H           6.5602   14.7704    4.7674 H       1  UNL1        0.0621
     63 C           7.1521   12.7331    4.5259 C.ar    1  UNL1       -0.0216
     64 C           6.4202   12.2773    5.7651 C.3     1  UNL1       -0.0197
     65 H           6.3106   11.1870    5.7130 H       1  UNL1        0.0344
     66 C           5.0230   12.8823    5.9005 C.3     1  UNL1       -0.0586
     67 H           5.0736   13.9437    6.1313 H       1  UNL1        0.0235
     68 H           4.4842   12.3910    6.7081 H       1  UNL1        0.0235
     69 H           4.4553   12.7542    4.9821 H       1  UNL1        0.0235
     70 C           7.2679   12.6218    6.9932 C.3     1  UNL1       -0.0586
     71 H           8.2513   12.1618    6.9144 H       1  UNL1        0.0235
     72 H           6.7851   12.2704    7.9031 H       1  UNL1        0.0235
     73 H           7.3995   13.6998    7.0669 H       1  UNL1        0.0235
     74 C           9.4899   11.3825    1.8165 C.3     1  UNL1       -0.0197
     75 H           9.4397   10.3820    2.2577 H       1  UNL1        0.0344
     76 C           8.9500   11.3023    0.3870 C.3     1  UNL1       -0.0586
     77 H           7.9074   10.9908    0.3879 H       1  UNL1        0.0235
     78 H           9.5200   10.5772   -0.1909 H       1  UNL1        0.0235
     79 H           9.0191   12.2684   -0.1078 H       1  UNL1        0.0235
     80 C          10.9551   11.8233    1.8124 C.3     1  UNL1       -0.0586
     81 H          11.0726   12.7870    1.3227 H       1  UNL1        0.0235
     82 H          11.5632   11.0943    1.2794 H       1  UNL1        0.0235
     83 H          11.3252   11.9096    2.8314 H       1  UNL1        0.0235
@<TRIPOS>BOND
     1    39    38    1
     2    37    36    1
     3    38    36   ar
     4    38    40   ar
     5    36    34   ar
     6    78    76    1
     7    79    76    1
     8    76    77    1
     9    76    74    1
    10    41    40    1
    11    40    42   ar
    12    34    35    1
    13    34    33   ar
    14    82    80    1
    15    81    80    1
    16    27    25    1
    17    58    57    1
    18    80    74    1
    19    80    83    1
    20    74    75    1
    21    74    56    1
    22    42    33   ar
    23    42    43    1
    24    52    51    1
    25    33     3    1
    26    31    29    1
    27    54    53    1
    28    57    56   ar
    29    57    59   ar
    30    25    28    1
    31    25    26    1
    32    25    23    1
    33    56    55   ar
    34    51    53   ar
    35    51    49   ar
    36    60    59    1
    37    53    44   ar
    38    59    61   ar
    39    24    23    1
    40    50    49    1
    41    29    23    1
    42    29    32    1
    43    29    30    1
    44    49    47   ar
    45    23     5    1
    46    44     3    1
    47    44    45   ar
    48    55     1    1
    49    55    63   ar
    50     3     1    1
    51     3     2    1
    52    47    45   ar
    53    47    48    1
    54    61    63   ar
    55    61    62    1
    56    45    46    1
    57    63    64    1
    58     5     6   ar
    59     5     4   ar
    60     2     4    1
    61     7     6    1
    62    69    66    1
    63     6     8   ar
    64     4    12   ar
    65    65    64    1
    66    64    66    1
    67    64    70    1
    68    66    67    1
    69    66    68    1
    70     8     9    1
    71     8    10   ar
    72    12    10   ar
    73    12    13    1
    74    71    70    1
    75    14    13    1
    76    70    73    1
    77    70    72    1
    78    16    15    1
    79    10    11    1
    80    13    15    1
    81    13    19    1
    82    15    17    1
    83    15    18    1
    84    22    19    1
    85    19    21    1
    86    19    20    1
