@<TRIPOS>MOLECULE
1,2
 72 74 0 0 0
SMALL
GASTEIGER

@<TRIPOS>ATOM
      1 N           0.3442    3.1359    3.9746 N.pl3   1  UNL1       -0.2142
      2 N           2.3928    2.3656    3.5332 N.pl3   1  UNL1       -0.2142
      3 C           1.6052    3.4252    3.6959 C.3     1  UNL1        0.2052
      4 C          -0.7061    4.0674    3.9739 C.ar    1  UNL1        0.0576
      5 C          -1.4393    4.2420    5.1638 C.ar    1  UNL1       -0.0219
      6 C          -2.5488    5.0696    5.1744 C.ar    1  UNL1       -0.0565
      7 H          -3.1168    5.1921    6.0841 H       1  UNL1        0.0621
      8 C          -2.9378    5.7502    4.0364 C.ar    1  UNL1       -0.0611
      9 H          -3.7994    6.4011    4.0575 H       1  UNL1        0.0618
     10 C          -2.2167    5.5853    2.8718 C.ar    1  UNL1       -0.0565
     11 H          -2.5259    6.1152    1.9832 H       1  UNL1        0.0621
     12 C          -1.1103    4.7495    2.8118 C.ar    1  UNL1       -0.0219
     13 C          -1.0297    3.5137    6.4249 C.3     1  UNL1       -0.0197
     14 H          -0.0078    3.1373    6.2825 H       1  UNL1        0.0344
     15 C          -1.0247    4.4214    7.6569 C.3     1  UNL1       -0.0586
     16 H          -2.0338    4.7049    7.9444 H       1  UNL1        0.0235
     17 H          -0.4551    5.3291    7.4669 H       1  UNL1        0.0235
     18 H          -0.5704    3.9005    8.4977 H       1  UNL1        0.0235
     19 C          -1.9601    2.3162    6.6421 C.3     1  UNL1       -0.0586
     20 H          -1.6993    1.7916    7.5598 H       1  UNL1        0.0235
     21 H          -1.8772    1.6206    5.8031 H       1  UNL1        0.0235
     22 H          -2.9929    2.6511    6.7160 H       1  UNL1        0.0235
     23 C          -0.4059    4.5823    1.4855 C.3     1  UNL1       -0.0197
     24 H           0.4140    3.8704    1.6187 H       1  UNL1        0.0344
     25 C          -1.3540    4.0143    0.4250 C.3     1  UNL1       -0.0586
     26 H          -2.1584    4.7132    0.2090 H       1  UNL1        0.0235
     27 H          -1.7953    3.0806    0.7614 H       1  UNL1        0.0235
     28 H          -0.8090    3.8283   -0.4989 H       1  UNL1        0.0235
     29 C           0.1736    5.9130    0.9969 C.3     1  UNL1       -0.0586
     30 H          -0.6246    6.6002    0.7264 H       1  UNL1        0.0235
     31 H           0.7959    5.7522    0.1184 H       1  UNL1        0.0235
     32 H           0.7783    6.3822    1.7681 H       1  UNL1        0.0235
     33 C           3.7821    2.4414    3.3794 C.ar    1  UNL1        0.0576
     34 C           4.6219    2.9244    4.4008 C.ar    1  UNL1       -0.0219
     35 C           5.9936    2.9379    4.1911 C.ar    1  UNL1       -0.0565
     36 H           6.6451    3.3127    4.9661 H       1  UNL1        0.0621
     37 C           6.5444    2.4849    3.0094 C.ar    1  UNL1       -0.0611
     38 H           7.6130    2.5219    2.8577 H       1  UNL1        0.0618
     39 C           5.7211    1.9672    2.0256 C.ar    1  UNL1       -0.0565
     40 H           6.1653    1.6020    1.1129 H       1  UNL1        0.0621
     41 C           4.3473    1.9205    2.1948 C.ar    1  UNL1       -0.0219
     42 C           4.0827    3.3721    5.7420 C.3     1  UNL1       -0.0197
     43 H           2.9885    3.3516    5.7117 H       1  UNL1        0.0344
     44 C           4.5320    4.7950    6.0839 C.3     1  UNL1       -0.0586
     45 H           5.5981    4.8228    6.2956 H       1  UNL1        0.0235
     46 H           4.0026    5.1523    6.9647 H       1  UNL1        0.0235
     47 H           4.3291    5.4742    5.2607 H       1  UNL1        0.0235
     48 C           4.5334    2.4084    6.8453 C.3     1  UNL1       -0.0586
     49 H           5.6186    2.3711    6.9078 H       1  UNL1        0.0235
     50 H           4.1662    1.4028    6.6511 H       1  UNL1        0.0235
     51 H           4.1441    2.7364    7.8067 H       1  UNL1        0.0235
     52 C           3.4472    1.3270    1.1312 C.3     1  UNL1       -0.0197
     53 H           2.6088    0.8383    1.6526 H       1  UNL1        0.0344
     54 C           2.8638    2.4181    0.2276 C.3     1  UNL1       -0.0586
     55 H           2.2279    3.0909    0.7958 H       1  UNL1        0.0235
     56 H           2.2633    1.9679   -0.5608 H       1  UNL1        0.0235
     57 H           3.6625    2.9962   -0.2357 H       1  UNL1        0.0235
     58 C           4.1485    0.2845    0.2580 C.3     1  UNL1       -0.0586
     59 H           3.4081   -0.2655   -0.3205 H       1  UNL1        0.0235
     60 H           4.7135   -0.4227    0.8606 H       1  UNL1        0.0235
     61 H           4.8287    0.7589   -0.4465 H       1  UNL1        0.0235
     62 C           2.1041    4.8233    3.6227 C.ar    1  UNL1        0.0011
     63 C           3.0609    5.2157    2.6906 C.ar    1  UNL1       -0.0547
     64 H           3.4576    4.5034    1.9869 H       1  UNL1        0.0622
     65 C           3.5068    6.5247    2.6503 C.ar    1  UNL1       -0.0614
     66 H           4.2470    6.8124    1.9183 H       1  UNL1        0.0618
     67 C           3.0076    7.4621    3.5384 C.ar    1  UNL1       -0.0617
     68 H           3.3538    8.4844    3.5017 H       1  UNL1        0.0618
     69 C           2.0654    7.0779    4.4779 C.ar    1  UNL1       -0.0614
     70 H           1.6764    7.7994    5.1812 H       1  UNL1        0.0618
     71 C           1.6205    5.7699    4.5238 C.ar    1  UNL1       -0.0547
     72 H           0.9009    5.4788    5.2719 H       1  UNL1        0.0622
@<TRIPOS>BOND
     1    56    54    1
     2    28    25    1
     3    61    58    1
     4    59    58    1
     5    57    54    1
     6    31    29    1
     7    26    25    1
     8    54    55    1
     9    54    52    1
    10    58    60    1
    11    58    52    1
    12    25    27    1
    13    25    23    1
    14    30    29    1
    15    29    23    1
    16    29    32    1
    17    40    39    1
    18    52    53    1
    19    52    41    1
    20    23    24    1
    21    23    12    1
    22    66    65    1
    23    11    10    1
    24    64    63    1
    25    39    41   ar
    26    39    37   ar
    27    41    33   ar
    28    65    63   ar
    29    65    67   ar
    30    63    62   ar
    31    12    10   ar
    32    12     4   ar
    33    38    37    1
    34    10     8   ar
    35    37    35   ar
    36    33     2    1
    37    33    34   ar
    38    68    67    1
    39     2     3    1
    40    67    69   ar
    41    62     3    1
    42    62    71   ar
    43     3     1    1
    44     4     1    1
    45     4     5   ar
    46     8     9    1
    47     8     6   ar
    48    35    34   ar
    49    35    36    1
    50    34    42    1
    51    69    71   ar
    52    69    70    1
    53    71    72    1
    54     5     6   ar
    55     5    13    1
    56     6     7    1
    57    47    44    1
    58    43    42    1
    59    42    44    1
    60    42    48    1
    61    21    19    1
    62    44    45    1
    63    44    46    1
    64    14    13    1
    65    13    19    1
    66    13    15    1
    67    19    22    1
    68    19    20    1
    69    50    48    1
    70    48    49    1
    71    48    51    1
    72    17    15    1
    73    15    16    1
    74    15    18    1
