@<TRIPOS>MOLECULE
2,3
 41 41 0 0 0
SMALL
GASTEIGER

@<TRIPOS>ATOM
      1 SI          7.2187    0.5134    5.2680 Si      1  UNL1        0.0000
      2 N           7.6970    2.2381    1.4104 N.pl3   1  UNL1        0.0000
      3 N           7.5643    1.1546    3.6514 N.3     1  UNL1        0.0000
      4 C           7.5596    2.8377    0.2293 C.3     1  UNL1        0.0000
      5 H           7.1457    3.8357    0.2491 H       1  UNL1        0.0000
      6 C           7.9414    2.2525   -0.9578 C.2     1  UNL1        0.0000
      7 H           7.8336    2.7928   -1.8838 H       1  UNL1        0.0000
      8 C           8.4801    0.9612   -0.9376 C.2     1  UNL1        0.0000
      9 H           8.7912    0.4877   -1.8561 H       1  UNL1        0.0000
     10 C           8.5858    0.3068    0.2630 C.2     1  UNL1        0.0000
     11 H           8.9612   -0.7020    0.3312 H       1  UNL1        0.0000
     12 C           8.1720    0.9570    1.4388 C.2     1  UNL1        0.0000
     13 C           8.1381    0.4049    2.7330 C.3     1  UNL1        0.0000
     14 H           8.5389   -0.5723    2.9559 H       1  UNL1        0.0000
     15 C           8.5299   -0.7950    5.7364 C.3     1  UNL1        0.0000
     16 H           8.4088   -1.6938    5.1407 H       1  UNL1        0.0000
     17 H           8.4188   -1.0853    6.7752 H       1  UNL1        0.0000
     18 H           9.5473   -0.4425    5.6015 H       1  UNL1        0.0000
     19 C           5.5111   -0.3120    5.0885 C.3     1  UNL1        0.0000
     20 H           5.5901   -1.2234    4.5032 H       1  UNL1        0.0000
     21 H           4.8245    0.3459    4.5633 H       1  UNL1        0.0000
     22 H           5.0741   -0.5734    6.0461 H       1  UNL1        0.0000
     23 C           7.2086    1.9763    6.5297 C.3     1  UNL1        0.0000
     24 C           6.2297    3.0488    6.0471 C.3     1  UNL1        0.0000
     25 H           6.0360    3.7820    6.8276 H       1  UNL1        0.0000
     26 H           5.2791    2.6004    5.7677 H       1  UNL1        0.0000
     27 H           6.6183    3.5911    5.1744 H       1  UNL1        0.0000
     28 C           6.6543    1.4140    7.8457 C.3     1  UNL1        0.0000
     29 H           6.5924    2.1861    8.6096 H       1  UNL1        0.0000
     30 H           7.2844    0.6139    8.2264 H       1  UNL1        0.0000
     31 H           5.6533    1.0189    7.6990 H       1  UNL1        0.0000
     32 C           8.6216    2.5567    6.7955 C.3     1  UNL1        0.0000
     33 H           9.1614    1.8020    7.3800 H       1  UNL1        0.0000
     34 C           8.6010    3.8521    7.6123 C.3     1  UNL1        0.0000
     35 H           9.6137    4.1052    7.9195 H       1  UNL1        0.0000
     36 H           7.9983    3.7575    8.5109 H       1  UNL1        0.0000
     37 H           8.2172    4.6769    7.0177 H       1  UNL1        0.0000
     38 C           9.4297    2.8147    5.5238 C.3     1  UNL1        0.0000
     39 H          10.3816    3.2755    5.7803 H       1  UNL1        0.0000
     40 H           8.9038    3.4950    4.8508 H       1  UNL1        0.0000
     41 H           9.6380    1.8948    4.9839 H       1  UNL1        0.0000
@<TRIPOS>BOND
     1     7     6    1
     2     9     8    1
     3     6     8    2
     4     6     4    1
     5     8    10    1
     6     4     5    1
     7     4     2    1
     8    10    11    1
     9    10    12    2
    10     2    12    1
    11    12    13    1
    12    13    14    1
    13    13     3    1
    14     3     1    1
    15    20    19    1
    16    21    19    1
    17    40    38    1
    18    41    38    1
    19    19     1    1
    20    19    22    1
    21    16    15    1
    22    27    24    1
    23     1    15    1
    24     1    23    1
    25    38    39    1
    26    38    32    1
    27    18    15    1
    28    15    17    1
    29    26    24    1
    30    24    23    1
    31    24    25    1
    32    23    32    1
    33    23    28    1
    34    32    33    1
    35    32    34    1
    36    37    34    1
    37    34    35    1
    38    34    36    1
    39    31    28    1
    40    28    30    1
    41    28    29    1
