@<TRIPOS>MOLECULE
2,3
 44 44 0 0 0
SMALL
GASTEIGER

@<TRIPOS>ATOM
      1 SI          3.0827    4.3945    0.4751 Si      1  UNL1        0.0000
      2 N           7.0857    5.3503   -0.5496 N.pl3   1  UNL1        0.0000
      3 N           4.7583    4.6508   -0.0427 N.3     1  UNL1        0.0000
      4 C           8.2460    5.8840   -0.9323 C.3     1  UNL1        0.0000
      5 H           8.4264    6.9007   -0.6124 H       1  UNL1        0.0000
      6 C           9.1855    5.1929   -1.6631 C.2     1  UNL1        0.0000
      7 H          10.1196    5.6631   -1.9220 H       1  UNL1        0.0000
      8 C           8.9153    3.8728   -2.0455 C.2     1  UNL1        0.0000
      9 H           9.6426    3.3123   -2.6125 H       1  UNL1        0.0000
     10 C           7.7103    3.3177   -1.7031 C.2     1  UNL1        0.0000
     11 H           7.4376    2.3180   -2.0024 H       1  UNL1        0.0000
     12 C           6.7870    4.0776   -0.9610 C.2     1  UNL1        0.0000
     13 C           5.4892    3.6912   -0.5857 C.3     1  UNL1        0.0000
     14 H           5.1145    2.6885   -0.7242 H       1  UNL1        0.0000
     15 C           1.9479    4.2722   -1.0774 C.3     1  UNL1        0.0000
     16 H           0.9184    4.1256   -0.7323 H       1  UNL1        0.0000
     17 C           2.3085    3.0819   -1.9658 C.3     1  UNL1        0.0000
     18 H           1.6274    3.0280   -2.8135 H       1  UNL1        0.0000
     19 H           2.2435    2.1428   -1.4215 H       1  UNL1        0.0000
     20 H           3.3182    3.1946   -2.3531 H       1  UNL1        0.0000
     21 C           1.9871    5.5509   -1.9139 C.3     1  UNL1        0.0000
     22 H           1.3196    5.4608   -2.7696 H       1  UNL1        0.0000
     23 H           2.9921    5.7386   -2.2794 H       1  UNL1        0.0000
     24 H           1.6805    6.4165   -1.3346 H       1  UNL1        0.0000
     25 C           2.7439    5.9902    1.4901 C.3     1  UNL1        0.0000
     26 H           3.1678    6.8234    0.9042 H       1  UNL1        0.0000
     27 C           1.2558    6.2693    1.6841 C.3     1  UNL1        0.0000
     28 H           1.1106    7.2098    2.2136 H       1  UNL1        0.0000
     29 H           0.7924    5.4781    2.2690 H       1  UNL1        0.0000
     30 H           0.7377    6.3334    0.7320 H       1  UNL1        0.0000
     31 C           3.4423    5.9927    2.8509 C.3     1  UNL1        0.0000
     32 H           3.3599    6.9732    3.3178 H       1  UNL1        0.0000
     33 H           4.5018    5.7522    2.7510 H       1  UNL1        0.0000
     34 H           2.9821    5.2673    3.5180 H       1  UNL1        0.0000
     35 C           3.0455    2.7271    1.4455 C.3     1  UNL1        0.0000
     36 H           3.1539    1.9278    0.7044 H       1  UNL1        0.0000
     37 C           4.1968    2.5691    2.4387 C.3     1  UNL1        0.0000
     38 H           4.2146    1.5546    2.8349 H       1  UNL1        0.0000
     39 H           4.0860    3.2525    3.2749 H       1  UNL1        0.0000
     40 H           5.1540    2.7666    1.9612 H       1  UNL1        0.0000
     41 C           1.7081    2.5070    2.1490 C.3     1  UNL1        0.0000
     42 H           1.6772    1.5203    2.6087 H       1  UNL1        0.0000
     43 H           0.8828    2.5818    1.4459 H       1  UNL1        0.0000
     44 H           1.5595    3.2456    2.9322 H       1  UNL1        0.0000
@<TRIPOS>BOND
     1    18    17    1
     2    22    21    1
     3     9     8    1
     4    20    17    1
     5    23    21    1
     6     8    10    1
     7     8     6    2
     8    11    10    1
     9    17    19    1
    10    17    15    1
    11     7     6    1
    12    21    24    1
    13    21    15    1
    14    10    12    2
    15     6     4    1
    16    15    16    1
    17    15     1    1
    18    12    13    1
    19    12     2    1
    20     4     5    1
    21     4     2    1
    22    14    13    1
    23    13     3    1
    24     3     1    1
    25     1    35    1
    26     1    25    1
    27    36    35    1
    28    30    27    1
    29    26    25    1
    30    35    41    1
    31    35    37    1
    32    43    41    1
    33    25    27    1
    34    25    31    1
    35    27    28    1
    36    27    29    1
    37    40    37    1
    38    41    42    1
    39    41    44    1
    40    37    38    1
    41    37    39    1
    42    33    31    1
    43    31    32    1
    44    31    34    1
