@<TRIPOS>MOLECULE
2,3
 35 35 0 0 0
SMALL
GASTEIGER

@<TRIPOS>ATOM
      1 SI         10.1259    0.5391    5.8285 Si      1  UNL1        0.0000
      2 N          14.2515    1.1743    5.9053 N.pl3   1  UNL1        0.0000
      3 N          11.8495    0.8685    6.0818 N.3     1  UNL1        0.0000
      4 C          15.5582    1.3132    5.6713 C.3     1  UNL1        0.0000
      5 H          15.8894    1.0382    4.6767 H       1  UNL1        0.0000
      6 C          16.4433    1.7695    6.6182 C.2     1  UNL1        0.0000
      7 H          17.4903    1.8587    6.3803 H       1  UNL1        0.0000
      8 C          15.9640    2.1118    7.8913 C.2     1  UNL1        0.0000
      9 H          16.6457    2.4711    8.6465 H       1  UNL1        0.0000
     10 C          14.6254    1.9853    8.1534 C.2     1  UNL1        0.0000
     11 H          14.2067    2.2409    9.1138 H       1  UNL1        0.0000
     12 C          13.7650    1.5121    7.1455 C.2     1  UNL1        0.0000
     13 C          12.3763    1.3203    7.2084 C.3     1  UNL1        0.0000
     14 H          11.7793    1.5358    8.0811 H       1  UNL1        0.0000
     15 C           9.1382    2.0693    6.3948 C.3     1  UNL1        0.0000
     16 H           9.1520    2.1877    7.4737 H       1  UNL1        0.0000
     17 H           8.1016    1.9977    6.0838 H       1  UNL1        0.0000
     18 H           9.5549    2.9717    5.9581 H       1  UNL1        0.0000
     19 C          10.0486    0.3036    3.9404 C.3     1  UNL1        0.0000
     20 H          10.1016    1.2615    3.4326 H       1  UNL1        0.0000
     21 H           9.1358   -0.1883    3.6235 H       1  UNL1        0.0000
     22 H          10.8872   -0.3051    3.5903 H       1  UNL1        0.0000
     23 C           9.6402   -1.0687    6.7836 C.3     1  UNL1        0.0000
     24 C          10.3593   -2.2746    6.1736 C.3     1  UNL1        0.0000
     25 H          10.1252   -3.1766    6.7377 H       1  UNL1        0.0000
     26 H          11.4372   -2.1330    6.1867 H       1  UNL1        0.0000
     27 H          10.0508   -2.4313    5.1434 H       1  UNL1        0.0000
     28 C           8.1289   -1.2850    6.6798 C.3     1  UNL1        0.0000
     29 H           7.8460   -2.2085    7.1827 H       1  UNL1        0.0000
     30 H           7.8168   -1.3569    5.6411 H       1  UNL1        0.0000
     31 H           7.5860   -0.4655    7.1438 H       1  UNL1        0.0000
     32 C          10.0227   -0.9695    8.2616 C.3     1  UNL1        0.0000
     33 H           9.7186   -1.8735    8.7879 H       1  UNL1        0.0000
     34 H           9.5336   -0.1224    8.7382 H       1  UNL1        0.0000
     35 H          11.0990   -0.8597    8.3725 H       1  UNL1        0.0000
@<TRIPOS>BOND
     1    20    19    1
     2    22    19    1
     3    21    19    1
     4    19     1    1
     5     5     4    1
     6    27    24    1
     7    30    28    1
     8     4     2    1
     9     4     6    1
    10     1     3    1
    11     1    15    1
    12     1    23    1
    13     2    12    1
    14    18    15    1
    15     3    13    1
    16    17    15    1
    17    24    26    1
    18    24    25    1
    19    24    23    1
    20     7     6    1
    21    15    16    1
    22     6     8    2
    23    28    23    1
    24    28    31    1
    25    28    29    1
    26    23    32    1
    27    12    13    1
    28    12    10    2
    29    13    14    1
    30     8    10    1
    31     8     9    1
    32    10    11    1
    33    32    35    1
    34    32    34    1
    35    32    33    1
