@<TRIPOS>MOLECULE
1,2
 72 73 0 0 0
SMALL
GASTEIGER

@<TRIPOS>ATOM
      1 N           5.1067    9.1629    4.1409 N.pl3   1  UNL1       -0.2371
      2 N           3.2886    6.9369    3.6227 N.pl3   1  UNL1       -0.2192
      3 C           5.4675   10.5214    4.1369 C.ar    1  UNL1        0.0557
      4 C           4.7711   11.4043    4.9847 C.ar    1  UNL1       -0.0219
      5 C           3.6449   10.9161    5.8717 C.3     1  UNL1       -0.0197
      6 H           3.2675    9.9752    5.4536 H       1  UNL1        0.0344
      7 C           4.1346   10.6523    7.2996 C.3     1  UNL1       -0.0586
      8 H           3.2946   10.3844    7.9383 H       1  UNL1        0.0235
      9 H           4.6059   11.5447    7.7075 H       1  UNL1        0.0235
     10 H           4.8552    9.8399    7.3283 H       1  UNL1        0.0235
     11 C           2.4832   11.9124    5.9128 C.3     1  UNL1       -0.0586
     12 H           1.6054   11.4406    6.3508 H       1  UNL1        0.0235
     13 H           2.2365   12.2571    4.9113 H       1  UNL1        0.0235
     14 H           2.7292   12.7768    6.5249 H       1  UNL1        0.0235
     15 C           5.1272   12.7448    5.0003 C.ar    1  UNL1       -0.0565
     16 H           4.6197   13.4245    5.6664 H       1  UNL1        0.0621
     17 C           6.1202   13.2287    4.1717 C.ar    1  UNL1       -0.0611
     18 H           6.3797   14.2767    4.1913 H       1  UNL1        0.0618
     19 C           6.7753   12.3646    3.3174 C.ar    1  UNL1       -0.0565
     20 H           7.5420   12.7504    2.6637 H       1  UNL1        0.0621
     21 C           6.4834   11.0074    3.2973 C.ar    1  UNL1       -0.0219
     22 C           7.2515   10.1006    2.3649 C.3     1  UNL1       -0.0197
     23 H           7.0048    9.0563    2.5886 H       1  UNL1        0.0344
     24 C           6.8057   10.3591    0.9232 C.3     1  UNL1       -0.0586
     25 H           7.3915    9.7507    0.2392 H       1  UNL1        0.0235
     26 H           6.9300   11.4070    0.6564 H       1  UNL1        0.0235
     27 H           5.7577   10.0749    0.8224 H       1  UNL1        0.0235
     28 C           8.7641   10.2865    2.5132 C.3     1  UNL1       -0.0586
     29 H           9.2848    9.5233    1.9393 H       1  UNL1        0.0235
     30 H           9.0671   10.2030    3.5559 H       1  UNL1        0.0235
     31 H           9.0832   11.2581    2.1436 H       1  UNL1        0.0235
     32 C           6.7762    8.6791    5.8650 C.3     1  UNL1       -0.0359
     33 H           6.8819    9.7596    5.9535 H       1  UNL1        0.0255
     34 H           7.6634    8.2943    5.3596 H       1  UNL1        0.0255
     35 H           6.7350    8.2331    6.8568 H       1  UNL1        0.0255
     36 C           5.5699    8.3124    5.0330 C.3     1  UNL1        0.0968
     37 C           4.9943    7.0581    5.2803 C.2     1  UNL1       -0.0383
     38 H           5.4464    6.4996    6.0917 H       1  UNL1        0.0610
     39 C           3.8623    6.4636    4.7042 C.2     1  UNL1        0.0264
     40 C           3.2853    5.2385    5.3693 C.3     1  UNL1       -0.0248
     41 H           2.2013    5.3293    5.4455 H       1  UNL1        0.0290
     42 H           3.7038    5.0870    6.3610 H       1  UNL1        0.0290
     43 H           3.4995    4.3595    4.7603 H       1  UNL1        0.0290
     44 C           2.0637    6.4558    3.1291 C.ar    1  UNL1        0.0601
     45 C           2.0253    5.4108    2.1948 C.ar    1  UNL1       -0.0216
     46 C           3.2904    4.7675    1.6808 C.3     1  UNL1       -0.0197
     47 H           4.1298    5.0631    2.3188 H       1  UNL1        0.0344
     48 C           3.5857    5.3148    0.2806 C.3     1  UNL1       -0.0586
     49 H           4.4523    4.8131   -0.1414 H       1  UNL1        0.0235
     50 H           3.8045    6.3816    0.3602 H       1  UNL1        0.0235
     51 H           2.7360    5.1620   -0.3816 H       1  UNL1        0.0235
     52 C           3.1922    3.2394    1.6730 C.3     1  UNL1       -0.0586
     53 H           4.1727    2.8070    1.4917 H       1  UNL1        0.0235
     54 H           2.5236    2.8902    0.8903 H       1  UNL1        0.0235
     55 H           2.8235    2.8672    2.6278 H       1  UNL1        0.0235
     56 C           0.7938    5.0049    1.6974 C.ar    1  UNL1       -0.0565
     57 H           0.7521    4.2128    0.9664 H       1  UNL1        0.0621
     58 C          -0.3801    5.5972    2.1188 C.ar    1  UNL1       -0.0611
     59 H          -1.3286    5.2649    1.7240 H       1  UNL1        0.0618
     60 C          -0.3353    6.6272    3.0382 C.ar    1  UNL1       -0.0565
     61 H          -1.2547    7.0968    3.3502 H       1  UNL1        0.0621
     62 C           0.8734    7.0683    3.5549 C.ar    1  UNL1       -0.0216
     63 C           0.9207    8.2585    4.4847 C.3     1  UNL1       -0.0197
     64 H           1.8481    8.2146    5.0705 H       1  UNL1        0.0344
     65 C          -0.2411    8.3051    5.4779 C.3     1  UNL1       -0.0586
     66 H          -0.0538    9.0708    6.2286 H       1  UNL1        0.0235
     67 H          -0.3579    7.3491    5.9854 H       1  UNL1        0.0235
     68 H          -1.1761    8.5507    4.9814 H       1  UNL1        0.0235
     69 C           0.9491    9.5185    3.6127 C.3     1  UNL1       -0.0586
     70 H           0.9337   10.4121    4.2301 H       1  UNL1        0.0235
     71 H           0.0764    9.5346    2.9629 H       1  UNL1        0.0235
     72 H           1.8454    9.5225    2.9877 H       1  UNL1        0.0235
@<TRIPOS>BOND
     1    51    48    1
     2    49    48    1
     3    25    24    1
     4    48    50    1
     5    48    46    1
     6    26    24    1
     7    27    24    1
     8    54    52    1
     9    24    22    1
    10    57    56    1
    11    53    52    1
    12    52    46    1
    13    52    55    1
    14    46    45    1
    15    46    47    1
    16    56    58   ar
    17    56    45   ar
    18    59    58    1
    19    29    28    1
    20    58    60   ar
    21    31    28    1
    22    45    44   ar
    23    22    28    1
    24    22    23    1
    25    22    21    1
    26    28    30    1
    27    20    19    1
    28    71    69    1
    29    72    69    1
    30    60    61    1
    31    60    62   ar
    32    44    62   ar
    33    44     2    1
    34    21    19   ar
    35    21     3   ar
    36    19    17   ar
    37    62    63    1
    38    69    70    1
    39    69    63    1
    40     2    39    1
    41     3     1    1
    42     3     4   ar
    43     1    36    1
    44    17    18    1
    45    17    15   ar
    46    63    64    1
    47    63    65    1
    48    39    37    2
    49    39    40    1
    50    43    40    1
    51    13    11    1
    52    68    65    1
    53     4    15   ar
    54     4     5    1
    55    15    16    1
    56    36    37    1
    57    36    32    1
    58    37    38    1
    59    34    32    1
    60    40    41    1
    61    40    42    1
    62     6     5    1
    63    65    67    1
    64    65    66    1
    65    32    33    1
    66    32    35    1
    67     5    11    1
    68     5     7    1
    69    11    12    1
    70    11    14    1
    71     7    10    1
    72     7     9    1
    73     7     8    1
