@<TRIPOS>MOLECULE
2,3
 56 56 0 0 0
SMALL
GASTEIGER

@<TRIPOS>ATOM
      1 SI          3.2454    1.8423    3.7710 Si      1  UNL1        0.0000
      2 N           4.3786    3.1067    3.3439 N.3     1  UNL1        0.0000
      3 N           7.1294    4.1573    3.1246 N.pl3   1  UNL1        0.0000
      4 C           4.2462    0.4738    4.6400 C.3     1  UNL1        0.0000
      5 H           4.9246   -0.0249    3.9522 H       1  UNL1        0.0000
      6 H           3.5757   -0.2824    5.0380 H       1  UNL1        0.0000
      7 H           4.8361    0.8654    5.4643 H       1  UNL1        0.0000
      8 C           1.8571    2.5268    4.9019 C.3     1  UNL1        0.0000
      9 H           0.9420    2.7292    4.3515 H       1  UNL1        0.0000
     10 H           2.1727    3.4492    5.3841 H       1  UNL1        0.0000
     11 H           1.6105    1.8152    5.6824 H       1  UNL1        0.0000
     12 C           2.4792    1.0484    2.1993 C.3     1  UNL1        0.0000
     13 H           1.5857    1.5648    1.8638 H       1  UNL1        0.0000
     14 H           2.1968    0.0220    2.4092 H       1  UNL1        0.0000
     15 H           3.1827    1.0272    1.3714 H       1  UNL1        0.0000
     16 C           2.7925    4.3469    1.9419 C.3     1  UNL1        0.0000
     17 H           2.0423    4.1753    2.7084 H       1  UNL1        0.0000
     18 H           2.5976    3.6687    1.1115 H       1  UNL1        0.0000
     19 H           2.7005    5.3682    1.5795 H       1  UNL1        0.0000
     20 C           4.1753    4.0872    2.4917 C.3     1  UNL1        0.0000
     21 C           5.1846    4.8927    1.9564 C.2     1  UNL1        0.0000
     22 H           4.8621    5.5970    1.1978 H       1  UNL1        0.0000
     23 C           6.5662    4.8695    2.1787 C.2     1  UNL1        0.0000
     24 C           7.4033    5.7415    1.2718 C.3     1  UNL1        0.0000
     25 H           8.4610    5.4983    1.3566 H       1  UNL1        0.0000
     26 H           7.2632    6.7828    1.5635 H       1  UNL1        0.0000
     27 H           7.0925    5.6390    0.2333 H       1  UNL1        0.0000
     28 C           8.5131    3.9367    3.1665 C.ar    1  UNL1        0.0000
     29 C           9.0595    2.9546    2.3171 C.ar    1  UNL1        0.0000
     30 C           8.1531    2.2175    1.3510 C.3     1  UNL1        0.0000
     31 H           7.4182    2.9328    0.9595 H       1  UNL1        0.0000
     32 C           7.3892    1.1137    2.0912 C.3     1  UNL1        0.0000
     33 H           6.6634    0.6474    1.4258 H       1  UNL1        0.0000
     34 H           6.8628    1.5185    2.9590 H       1  UNL1        0.0000
     35 H           8.0831    0.3503    2.4343 H       1  UNL1        0.0000
     36 C           8.8911    1.6332    0.1471 C.3     1  UNL1        0.0000
     37 H           8.1696    1.2707   -0.5830 H       1  UNL1        0.0000
     38 H           9.5182    0.7940    0.4381 H       1  UNL1        0.0000
     39 H           9.5124    2.3879   -0.3310 H       1  UNL1        0.0000
     40 C          10.4157    2.6840    2.4059 C.ar    1  UNL1        0.0000
     41 H          10.8573    1.9268    1.7780 H       1  UNL1        0.0000
     42 C          11.2218    3.3805    3.2889 C.ar    1  UNL1        0.0000
     43 H          12.2784    3.1613    3.3382 H       1  UNL1        0.0000
     44 C          10.6801    4.3607    4.0973 C.ar    1  UNL1        0.0000
     45 H          11.3222    4.9043    4.7730 H       1  UNL1        0.0000
     46 C           9.3253    4.6605    4.0494 C.ar    1  UNL1        0.0000
     47 C           8.7475    5.7495    4.9235 C.3     1  UNL1        0.0000
     48 H           7.6878    5.8827    4.6753 H       1  UNL1        0.0000
     49 C           9.4710    7.0800    4.6989 C.3     1  UNL1        0.0000
     50 H           8.9631    7.8717    5.2445 H       1  UNL1        0.0000
     51 H           9.4791    7.3413    3.6421 H       1  UNL1        0.0000
     52 H          10.5004    7.0341    5.0466 H       1  UNL1        0.0000
     53 C           8.8054    5.3286    6.3940 C.3     1  UNL1        0.0000
     54 H           8.4117    6.1237    7.0221 H       1  UNL1        0.0000
     55 H           9.8271    5.1166    6.7024 H       1  UNL1        0.0000
     56 H           8.1865    4.4417    6.5347 H       1  UNL1        0.0000
@<TRIPOS>BOND
     1    37    36    1
     2    39    36    1
     3    36    38    1
     4    36    30    1
     5    27    24    1
     6    31    30    1
     7    18    16    1
     8    22    21    1
     9    24    25    1
    10    24    26    1
    11    24    23    1
    12    30    32    1
    13    30    29    1
    14    15    12    1
    15    33    32    1
    16    19    16    1
    17    41    40    1
    18    13    12    1
    19    16    20    1
    20    16    17    1
    21    21    23    2
    22    21    20    1
    23    32    35    1
    24    32    34    1
    25    23     3    1
    26    12    14    1
    27    12     1    1
    28    29    40   ar
    29    29    28   ar
    30    40    42   ar
    31    20     2    1
    32     3    28    1
    33    28    46   ar
    34    42    43    1
    35    42    44   ar
    36     2     1    1
    37    51    49    1
    38     1     4    1
    39     1     8    1
    40     5     4    1
    41    46    44   ar
    42    46    47    1
    43    44    45    1
    44     9     8    1
    45     4     6    1
    46     4     7    1
    47    48    47    1
    48    49    47    1
    49    49    52    1
    50    49    50    1
    51     8    10    1
    52     8    11    1
    53    47    53    1
    54    53    56    1
    55    53    55    1
    56    53    54    1
