@<TRIPOS>MOLECULE
3,4
 40 40 0 0 0
SMALL
GASTEIGER

@<TRIPOS>ATOM
      1 SI          6.0590   -0.9998    3.1731 Si      1  UNL1        0.0000
      2 SI          0.9598    0.9187    2.5160 Si      1  UNL1        0.0000
      3 N           4.5614   -0.1433    3.3442 N.pl3   1  UNL1        0.5000
      4 N           2.4938    0.5675    3.2532 N.2     1  UNL1        0.5000
      5 C           7.0206   -0.4050    4.7040 C.3     1  UNL1        0.0000
      6 C           6.9355   -0.5204    1.5420 C.3     1  UNL1        0.0000
      7 C           5.7533   -2.8887    3.2097 C.3     1  UNL1        0.0000
      8 C           3.4620   -0.1089    2.6586 C.2     1  UNL1        0.0000
      9 C           3.3312   -0.7863    1.3517 C.ar    1  UNL1        0.0000
     10 C           3.7218   -0.1463    0.1823 C.ar    1  UNL1        0.0000
     11 C           3.6316   -0.8057   -1.0315 C.ar    1  UNL1        0.0000
     12 C           3.1612   -2.1072   -1.0838 C.ar    1  UNL1        0.0000
     13 C           2.7839   -2.7518    0.0826 C.ar    1  UNL1        0.0000
     14 C           2.8686   -2.0956    1.2980 C.ar    1  UNL1        0.0000
     15 C           1.2014    2.0161    0.9624 C.3     1  UNL1        0.0000
     16 C          -0.0058   -0.6649    2.0320 C.3     1  UNL1        0.0000
     17 C          -0.0871    1.8777    3.7839 C.3     1  UNL1        0.0000
     18 H           7.1126    0.6781    4.6873 H       1  UNL1        0.0000
     19 H           6.4687   -0.6652    5.6050 H       1  UNL1        0.0000
     20 H           8.0165   -0.8300    4.7775 H       1  UNL1        0.0000
     21 H           7.0282    0.5560    1.4425 H       1  UNL1        0.0000
     22 H           6.3976   -0.8918    0.6752 H       1  UNL1        0.0000
     23 H           7.9334   -0.9434    1.5162 H       1  UNL1        0.0000
     24 H           5.2790   -3.2365    2.2966 H       1  UNL1        0.0000
     25 H           5.1117   -3.1518    4.0450 H       1  UNL1        0.0000
     26 H           6.6867   -3.4297    3.3223 H       1  UNL1        0.0000
     27 H           4.1000    0.8631    0.2323 H       1  UNL1        0.0000
     28 H           3.9335   -0.3041   -1.9392 H       1  UNL1        0.0000
     29 H           3.0942   -2.6205   -2.0316 H       1  UNL1        0.0000
     30 H           2.4236   -3.7694    0.0451 H       1  UNL1        0.0000
     31 H           2.5797   -2.5915    2.2120 H       1  UNL1        0.0000
     32 H           1.9604    2.7756    1.1263 H       1  UNL1        0.0000
     33 H           0.2777    2.5229    0.7019 H       1  UNL1        0.0000
     34 H           1.5030    1.4275    0.1013 H       1  UNL1        0.0000
     35 H          -1.0532   -0.4308    1.8697 H       1  UNL1        0.0000
     36 H           0.0460   -1.4219    2.8087 H       1  UNL1        0.0000
     37 H           0.3751   -1.1059    1.1163 H       1  UNL1        0.0000
     38 H           0.4102    2.7952    4.0807 H       1  UNL1        0.0000
     39 H          -0.2489    1.2836    4.6775 H       1  UNL1        0.0000
     40 H          -1.0565    2.1364    3.3696 H       1  UNL1        0.0000
@<TRIPOS>BOND
     1    29    12    1
     2    28    11    1
     3    12    11   ar
     4    12    13   ar
     5    11    10   ar
     6    30    13    1
     7    13    14   ar
     8    34    15    1
     9    10    27    1
    10    10     9   ar
    11    22     6    1
    12    33    15    1
    13    15    32    1
    14    15     2    1
    15    37    16    1
    16    14     9   ar
    17    14    31    1
    18     9     8    1
    19    21     6    1
    20    23     6    1
    21     6     1    1
    22    35    16    1
    23    16     2    1
    24    16    36    1
    25    24     7    1
    26     2     4    1
    27     2    17    1
    28     8     4    2
    29     8     3    1
    30     1     7    1
    31     1     3    1
    32     1     5    1
    33     7    26    1
    34     7    25    1
    35    40    17    1
    36    17    38    1
    37    17    39    1
    38    18     5    1
    39     5    20    1
    40     5    19    1
