@<TRIPOS>MOLECULE
3,4
 40 40 0 0 0
SMALL
GASTEIGER

@<TRIPOS>ATOM
      1 SI          3.0766    4.3795    5.4186 Si      1  UNL1        0.0000
      2 SI          1.2204   -0.4548    7.2379 Si      1  UNL1        0.0000
      3 N           2.6392    2.6957    5.4868 N.3     1  UNL1        0.0000
      4 N           1.9128    0.7750    6.2207 N.3     1  UNL1        0.0000
      5 C           4.6625    4.6172    6.4540 C.3     1  UNL1        0.0000
      6 C           3.3131    4.7126    3.5530 C.3     1  UNL1        0.0000
      7 C           1.7197    5.5732    6.0461 C.3     1  UNL1        0.0000
      8 C           1.8946    2.0754    6.3672 C.3     1  UNL1        0.0000
      9 C           1.1820    2.7605    7.4644 C.ar    1  UNL1        0.0000
     10 C           1.8662    2.9366    8.6622 C.ar    1  UNL1        0.0000
     11 C           1.2476    3.5702    9.7250 C.ar    1  UNL1        0.0000
     12 C          -0.0536    4.0291    9.5984 C.ar    1  UNL1        0.0000
     13 C          -0.7351    3.8531    8.4059 C.ar    1  UNL1        0.0000
     14 C          -0.1215    3.2207    7.3384 C.ar    1  UNL1        0.0000
     15 C           2.5092   -0.9147    8.5693 C.3     1  UNL1        0.0000
     16 C           0.8228   -1.8739    6.0225 C.3     1  UNL1        0.0000
     17 C          -0.4196    0.0521    8.0813 C.3     1  UNL1        0.0000
     18 H           5.2898    3.7361    6.3489 H       1  UNL1        0.0000
     19 H           4.4410    4.7459    7.5104 H       1  UNL1        0.0000
     20 H           5.2350    5.4795    6.1284 H       1  UNL1        0.0000
     21 H           3.9950    3.9814    3.1335 H       1  UNL1        0.0000
     22 H           2.3746    4.6493    3.0088 H       1  UNL1        0.0000
     23 H           3.7285    5.6997    3.3800 H       1  UNL1        0.0000
     24 H           0.7500    5.3625    5.6085 H       1  UNL1        0.0000
     25 H           1.9888    6.5872    5.7719 H       1  UNL1        0.0000
     26 H           1.6083    5.5439    7.1239 H       1  UNL1        0.0000
     27 H           2.8797    2.5728    8.7426 H       1  UNL1        0.0000
     28 H           1.7806    3.7074   10.6543 H       1  UNL1        0.0000
     29 H          -0.5359    4.5239   10.4284 H       1  UNL1        0.0000
     30 H          -1.7495    4.2105    8.3070 H       1  UNL1        0.0000
     31 H          -0.6514    3.0832    6.4087 H       1  UNL1        0.0000
     32 H           2.4634   -0.2470    9.4258 H       1  UNL1        0.0000
     33 H           2.3749   -1.9285    8.9324 H       1  UNL1        0.0000
     34 H           3.5041   -0.8400    8.1387 H       1  UNL1        0.0000
     35 H           0.5431   -2.7799    6.5497 H       1  UNL1        0.0000
     36 H           1.6958   -2.0912    5.4172 H       1  UNL1        0.0000
     37 H           0.0059   -1.6144    5.3546 H       1  UNL1        0.0000
     38 H          -1.1247    0.4894    7.3828 H       1  UNL1        0.0000
     39 H          -0.2682    0.7633    8.8852 H       1  UNL1        0.0000
     40 H          -0.8854   -0.8297    8.5071 H       1  UNL1        0.0000
@<TRIPOS>BOND
     1    22     6    1
     2    21     6    1
     3    23     6    1
     4     6     1    1
     5    37    16    1
     6    36    16    1
     7     1     3    1
     8     1     7    1
     9     1     5    1
    10     3     8    1
    11    24     7    1
    12    25     7    1
    13    16    35    1
    14    16     2    1
    15     7    26    1
    16    20     5    1
    17     4     8    1
    18     4     2    1
    19    18     5    1
    20     8     9    1
    21    31    14    1
    22     5    19    1
    23     2    17    1
    24     2    15    1
    25    14     9   ar
    26    14    13   ar
    27    38    17    1
    28     9    10   ar
    29    17    40    1
    30    17    39    1
    31    34    15    1
    32    30    13    1
    33    13    12   ar
    34    15    33    1
    35    15    32    1
    36    10    27    1
    37    10    11   ar
    38    12    11   ar
    39    12    29    1
    40    11    28    1
