@<TRIPOS>MOLECULE
3,4
 38 38 0 0 0
SMALL
GASTEIGER

@<TRIPOS>ATOM
      1 SI         -1.4268    3.1959    2.1890 Si      1  UNL1        0.0000
      2 SI          2.6857   -0.7690    3.1321 Si      1  UNL1        0.0000
      3 N          -0.2235    2.2934    3.1187 N.pl3   1  UNL1        0.0000
      4 N           1.5815    0.5527    3.5327 N.pl3   1  UNL1        0.0000
      5 C           1.0168    2.8227    3.3622 C.ar    1  UNL1        0.0000
      6 C           2.0290    1.8465    3.5950 C.ar    1  UNL1        0.0000
      7 C           3.3424    2.2662    3.8080 C.ar    1  UNL1        0.0000
      8 C           3.6561    3.6123    3.8099 C.ar    1  UNL1        0.0000
      9 C           2.6705    4.5631    3.5819 C.ar    1  UNL1        0.0000
     10 C           1.3644    4.1740    3.3514 C.ar    1  UNL1        0.0000
     11 C          -2.3956    4.3648    3.3575 C.3     1  UNL1        0.0000
     12 C          -0.5575    4.1650    0.7833 C.3     1  UNL1        0.0000
     13 C          -2.6119    1.9340    1.4022 C.3     1  UNL1        0.0000
     14 C           3.5617   -1.3771    4.7236 C.3     1  UNL1        0.0000
     15 C           3.9468   -0.1792    1.8161 C.3     1  UNL1        0.0000
     16 C           1.6511   -2.1763    2.3804 C.3     1  UNL1        0.0000
     17 H           4.1069    1.5305    4.0014 H       1  UNL1        0.0000
     18 H           4.6737    3.9235    3.9931 H       1  UNL1        0.0000
     19 H           2.9225    5.6129    3.5873 H       1  UNL1        0.0000
     20 H           0.5975    4.9151    3.1904 H       1  UNL1        0.0000
     21 H          -1.7616    5.1002    3.8450 H       1  UNL1        0.0000
     22 H          -3.1568    4.9032    2.8019 H       1  UNL1        0.0000
     23 H          -2.8992    3.7906    4.1306 H       1  UNL1        0.0000
     24 H          -0.5549    5.2332    0.9714 H       1  UNL1        0.0000
     25 H           0.4739    3.8504    0.6565 H       1  UNL1        0.0000
     26 H          -1.0707    4.0063   -0.1591 H       1  UNL1        0.0000
     27 H          -3.3585    2.4396    0.7984 H       1  UNL1        0.0000
     28 H          -2.0822    1.2363    0.7604 H       1  UNL1        0.0000
     29 H          -3.1361    1.3564    2.1575 H       1  UNL1        0.0000
     30 H           4.1558   -0.6044    5.2035 H       1  UNL1        0.0000
     31 H           4.2235   -2.2060    4.4939 H       1  UNL1        0.0000
     32 H           2.8290   -1.7325    5.4432 H       1  UNL1        0.0000
     33 H           4.9265    0.0013    2.2451 H       1  UNL1        0.0000
     34 H           4.0682   -0.9332    1.0458 H       1  UNL1        0.0000
     35 H           3.6241    0.7392    1.3347 H       1  UNL1        0.0000
     36 H           1.1169   -1.8493    1.4934 H       1  UNL1        0.0000
     37 H           0.9184   -2.5524    3.0882 H       1  UNL1        0.0000
     38 H           2.2896   -3.0066    2.0965 H       1  UNL1        0.0000
@<TRIPOS>BOND
     1    26    12    1
     2    25    12    1
     3    28    13    1
     4    12    24    1
     5    12     1    1
     6    27    13    1
     7    34    15    1
     8    35    15    1
     9    13    29    1
    10    13     1    1
    11    36    16    1
    12    15    33    1
    13    15     2    1
    14    38    16    1
    15     1     3    1
    16     1    11    1
    17    16    37    1
    18    16     2    1
    19    22    11    1
    20     3     5    1
    21     2     4    1
    22     2    14    1
    23    20    10    1
    24    10     5   ar
    25    10     9   ar
    26    11    21    1
    27    11    23    1
    28     5     6   ar
    29     4     6    1
    30     9    19    1
    31     9     8   ar
    32     6     7   ar
    33     7     8   ar
    34     7    17    1
    35     8    18    1
    36    31    14    1
    37    14    30    1
    38    14    32    1
