@<TRIPOS>MOLECULE
4,5
 71 76 0 0 0
SMALL
GASTEIGER

@<TRIPOS>ATOM
      1 P           5.7848    5.1345  -15.4020 P.3     1  UNL1        0.0895
      2 P           4.0210    7.2603  -15.4472 P.3     1  UNL1        0.0513
      3 P           7.3129    2.9006  -15.8144 P.3     1  UNL1        0.0513
      4 N           4.2184    5.5660  -15.3578 N.3     1  UNL1       -0.1612
      5 N           5.7340    3.5253  -15.6285 N.3     1  UNL1       -0.1612
      6 C           6.6838    6.0228  -16.7062 C.ar    1  UNL1        0.0064
      7 C           6.8668    5.4407  -17.9508 C.ar    1  UNL1       -0.0517
      8 H           6.5926    4.4041  -18.0961 H       1  UNL1        0.0625
      9 C           7.3990    6.1855  -18.9876 C.ar    1  UNL1       -0.0611
     10 H           7.5393    5.7348  -19.9591 H       1  UNL1        0.0618
     11 C           7.7430    7.5114  -18.7812 C.ar    1  UNL1       -0.0617
     12 H           8.1484    8.0956  -19.5939 H       1  UNL1        0.0618
     13 C           7.5719    8.0903  -17.5338 C.ar    1  UNL1       -0.0611
     14 H           7.8475    9.1222  -17.3741 H       1  UNL1        0.0618
     15 C           7.0409    7.3485  -16.4949 C.ar    1  UNL1       -0.0517
     16 H           6.9031    7.7861  -15.5144 H       1  UNL1        0.0625
     17 C           6.6706    5.5214  -13.8641 C.ar    1  UNL1        0.0064
     18 C           5.9545    5.7494  -12.6982 C.ar    1  UNL1       -0.0517
     19 H           4.8774    5.8394  -12.7490 H       1  UNL1        0.0625
     20 C           6.6228    5.8632  -11.4920 C.ar    1  UNL1       -0.0611
     21 H           6.0680    6.0416  -10.5826 H       1  UNL1        0.0618
     22 C           8.0018    5.7371  -11.4510 C.ar    1  UNL1       -0.0617
     23 H           8.5220    5.8139  -10.5077 H       1  UNL1        0.0618
     24 C           8.7180    5.5133  -12.6168 C.ar    1  UNL1       -0.0611
     25 H           9.7931    5.4173  -12.5813 H       1  UNL1        0.0618
     26 C           8.0546    5.4049  -13.8245 C.ar    1  UNL1       -0.0517
     27 H           8.5998    5.2320  -14.7439 H       1  UNL1        0.0625
     28 C           3.8256    7.4841  -17.2725 C.ar    1  UNL1       -0.0031
     29 C           3.6773    6.4277  -18.1618 C.ar    1  UNL1       -0.0526
     30 H           3.6295    5.4036  -17.7973 H       1  UNL1        0.0624
     31 C           3.5947    6.6705  -19.5212 C.ar    1  UNL1       -0.0611
     32 H           3.4726    5.8432  -20.2054 H       1  UNL1        0.0618
     33 C           3.6682    7.9661  -20.0042 C.ar    1  UNL1       -0.0617
     34 H           3.6097    8.1517  -21.0667 H       1  UNL1        0.0618
     35 C           3.8189    9.0243  -19.1227 C.ar    1  UNL1       -0.0611
     36 H           3.8788   10.0361  -19.4973 H       1  UNL1        0.0618
     37 C           3.8989    8.7827  -17.7645 C.ar    1  UNL1       -0.0526
     38 H           4.0217    9.6019  -17.0687 H       1  UNL1        0.0624
     39 C           2.2273    7.3439  -15.0336 C.ar    1  UNL1       -0.0031
     40 C           1.2816    6.5327  -15.6524 C.ar    1  UNL1       -0.0526
     41 H           1.5850    5.8227  -16.4207 H       1  UNL1        0.0624
     42 C          -0.0560    6.6594  -15.3180 C.ar    1  UNL1       -0.0611
     43 H          -0.7908    6.0423  -15.8111 H       1  UNL1        0.0618
     44 C          -0.4547    7.5816  -14.3628 C.ar    1  UNL1       -0.0617
     45 H          -1.4998    7.6738  -14.1057 H       1  UNL1        0.0618
     46 C           0.4845    8.3869  -13.7416 C.ar    1  UNL1       -0.0611
     47 H           0.1753    9.1059  -12.9969 H       1  UNL1        0.0618
     48 C           1.8206    8.2705  -14.0813 C.ar    1  UNL1       -0.0526
     49 H           2.5622    8.8989  -13.6071 H       1  UNL1        0.0624
     50 C           6.8506    1.3555  -16.7030 C.ar    1  UNL1       -0.0031
     51 C           5.9007    0.4822  -16.1830 C.ar    1  UNL1       -0.0526
     52 H           5.4497    0.6903  -15.2159 H       1  UNL1        0.0624
     53 C           5.5816   -0.6744  -16.8731 C.ar    1  UNL1       -0.0611
     54 H           4.8693   -1.3711  -16.4563 H       1  UNL1        0.0618
     55 C           6.1885   -0.9536  -18.0882 C.ar    1  UNL1       -0.0617
     56 H           5.9325   -1.8560  -18.6238 H       1  UNL1        0.0618
     57 C           7.1272   -0.0811  -18.6120 C.ar    1  UNL1       -0.0611
     58 H           7.6018   -0.2995  -19.5580 H       1  UNL1        0.0618
     59 C           7.4621    1.0676  -17.9166 C.ar    1  UNL1       -0.0526
     60 H           8.2027    1.7506  -18.3111 H       1  UNL1        0.0624
     61 C           7.6108    2.1304  -14.1676 C.ar    1  UNL1       -0.0031
     62 C           6.7161    2.2033  -13.1090 C.ar    1  UNL1       -0.0526
     63 H           5.7474    2.6766  -13.2450 H       1  UNL1        0.0624
     64 C           7.0563    1.6682  -11.8786 C.ar    1  UNL1       -0.0611
     65 H           6.3562    1.7255  -11.0591 H       1  UNL1        0.0618
     66 C           8.2864    1.0597  -11.6973 C.ar    1  UNL1       -0.0617
     67 H           8.5478    0.6455  -10.7345 H       1  UNL1        0.0618
     68 C           9.1833    0.9827  -12.7513 C.ar    1  UNL1       -0.0611
     69 H          10.1439    0.5077  -12.6118 H       1  UNL1        0.0618
     70 C           8.8483    1.5224  -13.9775 C.ar    1  UNL1       -0.0526
     71 H           9.5431    1.4764  -14.8061 H       1  UNL1        0.0624
@<TRIPOS>BOND
     1    34    33    1
     2    32    31    1
     3    33    31   ar
     4    33    35   ar
     5    10     9    1
     6    12    11    1
     7    58    57    1
     8    31    29   ar
     9    36    35    1
    10    35    37   ar
    11     9    11   ar
    12     9     7   ar
    13    11    13   ar
    14    56    55    1
    15    57    55   ar
    16    57    59   ar
    17    60    59    1
    18    29    30    1
    19    29    28   ar
    20     8     7    1
    21    55    53   ar
    22     7     6   ar
    23    59    50   ar
    24    37    28   ar
    25    37    38    1
    26    13    14    1
    27    13    15   ar
    28    28     2    1
    29    53    54    1
    30    53    51   ar
    31     6    15   ar
    32     6     1    1
    33    50    51   ar
    34    50     3    1
    35    15    16    1
    36    41    40    1
    37    51    52    1
    38     3     5    1
    39     3    61    1
    40    43    42    1
    41    40    42   ar
    42    40    39   ar
    43     5     1    1
    44     2     4    1
    45     2    39    1
    46     1     4    1
    47     1    17    1
    48    42    44   ar
    49    39    48   ar
    50    71    70    1
    51    27    26    1
    52    44    45    1
    53    44    46   ar
    54    61    70   ar
    55    61    62   ar
    56    48    46   ar
    57    48    49    1
    58    70    68   ar
    59    17    26   ar
    60    17    18   ar
    61    26    24   ar
    62    46    47    1
    63    63    62    1
    64    62    64   ar
    65    68    69    1
    66    68    66   ar
    67    19    18    1
    68    18    20   ar
    69    24    25    1
    70    24    22   ar
    71    64    66   ar
    72    64    65    1
    73    66    67    1
    74    20    22   ar
    75    20    21    1
    76    22    23    1
