@<TRIPOS>MOLECULE
1,2
 50 49 0 0 0
SMALL
GASTEIGER

@<TRIPOS>ATOM
      1 N           0.9247   16.5540    5.9501 N.3     1  UNL1        0.0000
      2 N           0.3481   16.7668    3.8350 N.3     1  UNL1        0.0000
      3 N          -1.0890   17.7863    5.4769 N.3     1  UNL1        0.0000
      4 SI         -2.6068   16.9354    5.6862 Si      1  UNL1        0.0000
      5 SI         -0.9192   19.5132    5.7208 Si      1  UNL1        0.0000
      6 C           0.0607   17.0368    5.0872 C.3     1  UNL1        0.0000
      7 C           0.7350   16.6070    7.3742 C.3     1  UNL1        0.0000
      8 H          -0.2729   16.9906    7.5954 H       1  UNL1        0.0000
      9 C           1.7700   17.5279    8.0342 C.3     1  UNL1        0.0000
     10 H           1.6981   18.5358    7.6309 H       1  UNL1        0.0000
     11 H           2.7709   17.1378    7.8572 H       1  UNL1        0.0000
     12 H           1.6017   17.5719    9.1087 H       1  UNL1        0.0000
     13 C           0.8716   15.2062    7.9820 C.3     1  UNL1        0.0000
     14 H           1.8690   14.8182    7.7881 H       1  UNL1        0.0000
     15 H           0.1442   14.5220    7.5515 H       1  UNL1        0.0000
     16 H           0.7117   15.2473    9.0575 H       1  UNL1        0.0000
     17 C          -0.3814   17.3043    2.7189 C.3     1  UNL1        0.0000
     18 H          -1.1524   17.9991    3.0849 H       1  UNL1        0.0000
     19 C          -1.0602   16.1833    1.9212 C.3     1  UNL1        0.0000
     20 H          -1.7677   15.6403    2.5450 H       1  UNL1        0.0000
     21 H          -0.3049   15.4932    1.5491 H       1  UNL1        0.0000
     22 H          -1.5980   16.6002    1.0716 H       1  UNL1        0.0000
     23 C           0.5599   18.0668    1.7785 C.3     1  UNL1        0.0000
     24 H           1.3101   17.3874    1.3807 H       1  UNL1        0.0000
     25 H           1.0653   18.8740    2.3030 H       1  UNL1        0.0000
     26 H          -0.0034   18.4934    0.9509 H       1  UNL1        0.0000
     27 C          -3.4426   17.4946    7.3061 C.3     1  UNL1        0.0000
     28 H          -3.7769   18.5243    7.2452 H       1  UNL1        0.0000
     29 H          -2.7850   17.4097    8.1650 H       1  UNL1        0.0000
     30 H          -4.3173   16.8821    7.5005 H       1  UNL1        0.0000
     31 C          -3.8583   17.2625    4.2784 C.3     1  UNL1        0.0000
     32 H          -3.4458   17.0763    3.2927 H       1  UNL1        0.0000
     33 H          -4.2152   18.2864    4.2930 H       1  UNL1        0.0000
     34 H          -4.7244   16.6176    4.3982 H       1  UNL1        0.0000
     35 C          -2.3034   15.0571    5.7921 C.3     1  UNL1        0.0000
     36 H          -2.7890   14.6301    6.6643 H       1  UNL1        0.0000
     37 H          -1.2450   14.8386    5.8630 H       1  UNL1        0.0000
     38 H          -2.6888   14.5387    4.9197 H       1  UNL1        0.0000
     39 C          -1.0300   20.0267    7.5596 C.3     1  UNL1        0.0000
     40 H          -0.4833   19.3608    8.2184 H       1  UNL1        0.0000
     41 H          -2.0591   20.0498    7.9012 H       1  UNL1        0.0000
     42 H          -0.6252   21.0260    7.6932 H       1  UNL1        0.0000
     43 C           0.7500   20.1186    5.0294 C.3     1  UNL1        0.0000
     44 H           0.6184   20.9937    4.4004 H       1  UNL1        0.0000
     45 H           1.2234   19.3495    4.4319 H       1  UNL1        0.0000
     46 H           1.4401   20.3902    5.8219 H       1  UNL1        0.0000
     47 C          -2.3089   20.4413    4.8016 C.3     1  UNL1        0.0000
     48 H          -3.2795   20.2395    5.2414 H       1  UNL1        0.0000
     49 H          -2.3591   20.1791    3.7498 H       1  UNL1        0.0000
     50 H          -2.1424   21.5121    4.8650 H       1  UNL1        0.0000
@<TRIPOS>BOND
     1    26    23    1
     2    22    19    1
     3    24    23    1
     4    21    19    1
     5    23    25    1
     6    23    17    1
     7    19    20    1
     8    19    17    1
     9    17    18    1
    10    17     2    1
    11    32    31    1
    12    49    47    1
    13     2     6    1
    14    31    33    1
    15    31    34    1
    16    31     4    1
    17    44    43    1
    18    45    43    1
    19    47    50    1
    20    47    48    1
    21    47     5    1
    22    38    35    1
    23    43     5    1
    24    43    46    1
    25     6     3    1
    26     6     1    1
    27     3     4    1
    28     3     5    1
    29     4    35    1
    30     4    27    1
    31     5    39    1
    32    35    37    1
    33    35    36    1
    34     1     7    1
    35    28    27    1
    36    27    30    1
    37    27    29    1
    38     7     8    1
    39     7    13    1
    40     7     9    1
    41    15    13    1
    42    39    42    1
    43    39    41    1
    44    39    40    1
    45    10     9    1
    46    14    13    1
    47    11     9    1
    48    13    16    1
    49     9    12    1
