@<TRIPOS>MOLECULE
1,2
 26 27 0 0 0
SMALL
GASTEIGER

@<TRIPOS>ATOM
      1 N           1.3989    2.5521    4.7515 N.pl3   1  UNL1       -0.2427
      2 N           0.8343    1.9929    7.2600 N.pl3   1  UNL1       -0.2387
      3 C           1.6571    2.7843    3.4637 C.3     1  UNL1        0.0847
      4 C           2.4739    3.8042    3.0256 C.2     1  UNL1       -0.0571
      5 C           3.0748    4.6508    3.9559 C.2     1  UNL1       -0.0509
      6 C           2.8016    4.4111    5.2931 C.2     1  UNL1       -0.0379
      7 C           1.9669    3.3613    5.6701 C.2     1  UNL1        0.0581
      8 C           1.6484    3.0524    7.0689 C.3     1  UNL1        0.1422
      9 C           2.1439    3.7877    8.1431 C.2     1  UNL1       -0.0478
     10 C           1.8171    3.4436    9.4453 C.2     1  UNL1       -0.0506
     11 C           0.9768    2.3451    9.6175 C.2     1  UNL1       -0.0437
     12 C           0.5173    1.6615    8.5123 C.2     1  UNL1        0.0132
     13 C           3.9889    5.7493    3.5280 C.3     1  UNL1       -0.0399
     14 C           2.3591    4.1989   10.6121 C.3     1  UNL1       -0.0399
     15 H           1.1863    2.1197    2.7502 H       1  UNL1        0.0584
     16 H           2.6444    3.9382    1.9693 H       1  UNL1        0.0594
     17 H           3.2489    5.0448    6.0416 H       1  UNL1        0.0637
     18 H           2.7918    4.6318    7.9709 H       1  UNL1        0.0601
     19 H           0.6845    2.0252   10.6051 H       1  UNL1        0.0633
     20 H          -0.1363    0.8070    8.6341 H       1  UNL1        0.0798
     21 H           4.9845    5.3438    3.3462 H       1  UNL1        0.0277
     22 H           3.6403    6.2020    2.6027 H       1  UNL1        0.0277
     23 H           4.0692    6.5159    4.2944 H       1  UNL1        0.0277
     24 H           1.6401    4.2174   11.4276 H       1  UNL1        0.0277
     25 H           3.2633    3.7088   10.9744 H       1  UNL1        0.0277
     26 H           2.6147    5.2189   10.3358 H       1  UNL1        0.0277
@<TRIPOS>BOND
     1    16     4    1
     2    22    13    1
     3    15     3    1
     4     4     3    1
     5     4     5    2
     6    21    13    1
     7     3     1    1
     8    13     5    1
     9    13    23    1
    10     5     6    1
    11     1     7    1
    12     6     7    2
    13     6    17    1
    14     7     8    1
    15     8     2    1
    16     8     9    1
    17     2    12    1
    18    18     9    1
    19     9    10    2
    20    12    20    1
    21    12    11    2
    22    10    11    1
    23    10    14    1
    24    11    19    1
    25    26    14    1
    26    14    25    1
    27    14    24    1
