@<TRIPOS>MOLECULE
1,2
 20 21 0 0 0
SMALL
GASTEIGER

@<TRIPOS>ATOM
      1 N          17.1382   -1.0280    3.0809 N.pl3   1  UNL1       -0.2427
      2 N          17.8079   -0.8188    5.3670 N.pl3   1  UNL1       -0.2387
      3 C          16.6862   -0.9558    1.8325 C.3     1  UNL1        0.0844
      4 H          15.7298   -0.4864    1.7090 H       1  UNL1        0.0584
      5 C          17.3837   -1.4420    0.7484 C.2     1  UNL1       -0.0600
      6 H          16.9695   -1.3532   -0.2433 H       1  UNL1        0.0592
      7 C          18.6212   -2.0500    0.9516 C.2     1  UNL1       -0.0623
      8 H          19.1883   -2.4425    0.1225 H       1  UNL1        0.0616
      9 C          18.3411   -1.6017    3.2842 C.2     1  UNL1        0.0578
     10 C          19.1022   -2.1259    2.2420 C.2     1  UNL1       -0.0408
     11 H          20.0610   -2.5728    2.4497 H       1  UNL1        0.0634
     12 C          19.7828   -2.1818    5.2774 C.2     1  UNL1       -0.0507
     13 H          20.4690   -2.7621    4.6822 H       1  UNL1        0.0598
     14 C          18.6984   -1.5529    4.6702 C.3     1  UNL1        0.1419
     15 C          19.9533   -2.0640    6.6410 C.2     1  UNL1       -0.0620
     16 H          20.7800   -2.5425    7.1418 H       1  UNL1        0.0616
     17 C          19.0195   -1.3160    7.3560 C.2     1  UNL1       -0.0466
     18 H          19.1072   -1.2013    8.4247 H       1  UNL1        0.0630
     19 C          17.9788   -0.7159    6.6815 C.2     1  UNL1        0.0129
     20 H          17.2466   -0.1303    7.2024 H       1  UNL1        0.0798
@<TRIPOS>BOND
     1     6     5    1
     2     8     7    1
     3     5     7    2
     4     5     3    1
     5     7    10    1
     6     4     3    1
     7     3     1    1
     8    10    11    1
     9    10     9    2
    10     1     9    1
    11     9    14    1
    12    14    12    1
    13    14     2    1
    14    13    12    1
    15    12    15    2
    16     2    19    1
    17    15    16    1
    18    15    17    1
    19    19    20    1
    20    19    17    2
    21    17    18    1
