@<TRIPOS>MOLECULE
1,2
 71 73 0 0 0
SMALL
GASTEIGER

@<TRIPOS>ATOM
      1 N          -7.2259   -0.6891   -5.0197 N.pl3   1  UNL1       -0.0450
      2 N          -6.8136    1.8262   -4.2256 N.pl3   1  UNL1       -0.2263
      3 N          -9.5555   -0.5048   -4.8492 N.2     1  UNL1       -0.0398
      4 N          -9.8752    2.9093   -3.2434 N.3     1  UNL1       -0.2234
      5 C          -8.3647   -0.0238   -4.7118 C.2     1  UNL1        0.3577
      6 C          -8.1383    1.3373   -4.1768 C.3     1  UNL1        0.2182
      7 C          -9.1009    2.0387   -3.6022 C.3     1  UNL1        0.1223
      8 C          -7.3600   -2.0698   -5.5026 C.3     1  UNL1        0.1357
      9 C          -8.0835   -2.0962   -6.8592 C.3     1  UNL1       -0.0196
     10 H          -9.0998   -1.7336   -6.7342 H       1  UNL1        0.0273
     11 H          -8.1140   -3.1123   -7.2465 H       1  UNL1        0.0273
     12 H          -7.5606   -1.4591   -7.5701 H       1  UNL1        0.0273
     13 C          -8.1356   -2.9463   -4.5033 C.3     1  UNL1       -0.0196
     14 H          -7.6519   -2.9277   -3.5297 H       1  UNL1        0.0273
     15 H          -8.1696   -3.9721   -4.8637 H       1  UNL1        0.0273
     16 H          -9.1503   -2.5751   -4.4027 H       1  UNL1        0.0273
     17 C          -5.9580   -2.6701   -5.6719 C.3     1  UNL1       -0.0196
     18 H          -5.3642   -2.4687   -4.7781 H       1  UNL1        0.0273
     19 H          -5.4698   -2.2332   -6.5401 H       1  UNL1        0.0273
     20 H          -6.0332   -3.7468   -5.8178 H       1  UNL1        0.0273
     21 C          -6.7115    3.1919   -3.9095 C.ar    1  UNL1        0.0550
     22 C          -5.8699    3.6305   -2.8684 C.ar    1  UNL1       -0.0276
     23 C          -5.8100    4.9764   -2.5359 C.ar    1  UNL1       -0.0570
     24 H          -5.1647    5.2825   -1.7236 H       1  UNL1        0.0621
     25 C          -6.5686    5.9172   -3.2035 C.ar    1  UNL1       -0.0611
     26 H          -6.5273    6.9588   -2.9215 H       1  UNL1        0.0618
     27 C          -7.3714    5.5028   -4.2502 C.ar    1  UNL1       -0.0570
     28 H          -7.9505    6.2298   -4.8023 H       1  UNL1        0.0621
     29 C          -7.4477    4.1708   -4.6216 C.ar    1  UNL1       -0.0276
     30 C          -5.0419    2.6687   -2.0669 C.3     1  UNL1       -0.0379
     31 H          -4.0629    3.1006   -1.8564 H       1  UNL1        0.0278
     32 H          -4.9251    1.7259   -2.6022 H       1  UNL1        0.0278
     33 H          -5.5294    2.4666   -1.1114 H       1  UNL1        0.0278
     34 C          -8.2727    3.8252   -5.8273 C.3     1  UNL1       -0.0379
     35 H          -8.2233    4.6355   -6.5546 H       1  UNL1        0.0278
     36 H          -9.3158    3.6796   -5.5516 H       1  UNL1        0.0278
     37 H          -7.9163    2.9083   -6.2923 H       1  UNL1        0.0278
     38 C         -10.7061    0.2146   -4.6011 C.ar    1  UNL1        0.1820
     39 C         -11.2723    1.0018   -5.6191 C.ar    1  UNL1        0.0005
     40 C         -12.4683    1.6566   -5.3855 C.ar    1  UNL1       -0.0547
     41 H         -12.8916    2.2748   -6.1655 H       1  UNL1        0.0622
     42 C         -13.1280    1.5294   -4.1766 C.ar    1  UNL1       -0.0610
     43 H         -14.0582    2.0517   -4.0058 H       1  UNL1        0.0618
     44 C         -12.5943    0.7159   -3.1933 C.ar    1  UNL1       -0.0547
     45 H         -13.1183    0.5933   -2.2542 H       1  UNL1        0.0622
     46 C         -11.3968    0.0501   -3.3886 C.ar    1  UNL1        0.0005
     47 C         -10.5979    1.1044   -6.9556 C.3     1  UNL1       -0.0356
     48 H         -10.9288    1.9932   -7.4882 H       1  UNL1        0.0279
     49 H         -10.8411    0.2298   -7.5614 H       1  UNL1        0.0279
     50 H          -9.5167    1.1362   -6.8442 H       1  UNL1        0.0279
     51 C         -10.8321   -0.8384   -2.3205 C.3     1  UNL1       -0.0356
     52 H         -11.4994   -0.8811   -1.4622 H       1  UNL1        0.0279
     53 H          -9.8602   -0.4724   -1.9928 H       1  UNL1        0.0279
     54 H         -10.6896   -1.8474   -2.7057 H       1  UNL1        0.0279
     55 C         -10.3064    3.2367   -1.9129 C.3     1  UNL1        0.0262
     56 H         -11.2956    2.7799   -1.7764 H       1  UNL1        0.0477
     57 C          -9.3514    2.7388   -0.8263 C.3     1  UNL1       -0.0360
     58 H          -8.3553    3.1403   -1.0352 H       1  UNL1        0.0281
     59 H          -9.2930    1.6492   -0.8679 H       1  UNL1        0.0281
     60 C          -9.8186    3.1925    0.5523 C.3     1  UNL1       -0.0516
     61 H         -10.7921    2.7459    0.7689 H       1  UNL1        0.0266
     62 H          -9.1151    2.8458    1.3126 H       1  UNL1        0.0266
     63 C          -9.9369    4.7126    0.6037 C.3     1  UNL1       -0.0530
     64 H         -10.2807    5.0267    1.5917 H       1  UNL1        0.0265
     65 H          -8.9540    5.1573    0.4312 H       1  UNL1        0.0265
     66 C         -10.9061    5.2037   -0.4672 C.3     1  UNL1       -0.0516
     67 H         -10.9781    6.2928   -0.4346 H       1  UNL1        0.0266
     68 H         -11.9004    4.7957   -0.2707 H       1  UNL1        0.0266
     69 C         -10.4400    4.7602   -1.8492 C.3     1  UNL1       -0.0360
     70 H         -11.1434    5.0876   -2.6160 H       1  UNL1        0.0281
     71 H          -9.4661    5.2020   -2.0742 H       1  UNL1        0.0281
@<TRIPOS>BOND
     1    12     9    1
     2    49    47    1
     3    48    47    1
     4    11     9    1
     5    47    50    1
     6    47    39    1
     7     9    10    1
     8     9     8    1
     9    35    34    1
    10    19    17    1
    11    37    34    1
    12    41    40    1
    13    34    36    1
    14    34    29    1
    15    20    17    1
    16    17     8    1
    17    17    18    1
    18    39    40   ar
    19    39    38   ar
    20     8     1    1
    21     8    13    1
    22    40    42   ar
    23     1     5    1
    24    15    13    1
    25     3     5    2
    26     3    38    1
    27    28    27    1
    28     5     6    1
    29    29    27   ar
    30    29    21   ar
    31    38    46   ar
    32    13    16    1
    33    13    14    1
    34    27    25   ar
    35     2     6    1
    36     2    21    1
    37     6     7    1
    38    42    43    1
    39    42    44   ar
    40    21    22   ar
    41     7     4    1
    42    46    44   ar
    43    46    51    1
    44     4    55    1
    45    25    26    1
    46    25    23   ar
    47    44    45    1
    48    22    23   ar
    49    22    30    1
    50    54    51    1
    51    70    69    1
    52    32    30    1
    53    23    24    1
    54    51    53    1
    55    51    52    1
    56    71    69    1
    57    30    31    1
    58    30    33    1
    59    55    69    1
    60    55    56    1
    61    55    57    1
    62    69    66    1
    63    58    57    1
    64    59    57    1
    65    57    60    1
    66    66    67    1
    67    66    68    1
    68    66    63    1
    69    65    63    1
    70    60    63    1
    71    60    61    1
    72    60    62    1
    73    63    64    1
