@<TRIPOS>MOLECULE
1,2
 68 70 0 0 0
SMALL
GASTEIGER

@<TRIPOS>ATOM
      1 N         -10.9966   -9.4471   -3.0067 N.pl3   1  UNL1       -0.0450
      2 N          -9.3121  -10.2012   -4.9328 N.pl3   1  UNL1       -0.2263
      3 N         -12.8945  -10.0343   -4.2444 N.2     1  UNL1       -0.0398
      4 N         -11.3757  -10.8412   -7.5768 N.3     1  UNL1       -0.2221
      5 C         -11.6170   -9.8968   -4.1222 C.2     1  UNL1        0.3577
      6 C         -10.6891  -10.2151   -5.2344 C.3     1  UNL1        0.2182
      7 C         -11.1268  -10.3999   -6.4678 C.3     1  UNL1        0.1223
      8 C         -11.6091  -10.1249   -8.8005 C.3     1  UNL1        0.0399
      9 H         -10.9119   -9.2861   -8.9253 H       1  UNL1        0.0490
     10 H         -12.6307   -9.7234   -8.7638 H       1  UNL1        0.0490
     11 C         -11.8450   -9.0389   -1.8790 C.3     1  UNL1        0.1357
     12 C         -10.9514   -8.4407   -0.7842 C.3     1  UNL1       -0.0196
     13 H         -10.3887   -9.2305   -0.2918 H       1  UNL1        0.0273
     14 H         -11.5663   -7.9342   -0.0416 H       1  UNL1        0.0273
     15 H         -10.2603   -7.7222   -1.2296 H       1  UNL1        0.0273
     16 C         -12.5977  -10.2513   -1.3064 C.3     1  UNL1       -0.0196
     17 H         -13.2860  -10.6371   -2.0531 H       1  UNL1        0.0273
     18 H         -13.1608   -9.9578   -0.4232 H       1  UNL1        0.0273
     19 H         -11.8896  -11.0320   -1.0349 H       1  UNL1        0.0273
     20 C         -12.8663   -7.9664   -2.2976 C.3     1  UNL1       -0.0196
     21 H         -13.5640   -8.3855   -3.0152 H       1  UNL1        0.0273
     22 H         -12.3585   -7.1176   -2.7494 H       1  UNL1        0.0273
     23 H         -13.4208   -7.6266   -1.4256 H       1  UNL1        0.0273
     24 C          -8.5121  -10.7563   -5.9473 C.ar    1  UNL1        0.0550
     25 C          -8.7484  -12.0623   -6.4427 C.ar    1  UNL1       -0.0276
     26 C          -7.9745  -12.5618   -7.4769 C.ar    1  UNL1       -0.0570
     27 H          -8.1832  -13.5552   -7.8480 H       1  UNL1        0.0621
     28 C          -6.9432  -11.8259   -8.0297 C.ar    1  UNL1       -0.0611
     29 H          -6.3535  -12.2291   -8.8391 H       1  UNL1        0.0618
     30 C          -6.6737  -10.5724   -7.5185 C.ar    1  UNL1       -0.0570
     31 H          -5.8618   -9.9861   -7.9271 H       1  UNL1        0.0621
     32 C          -7.4397  -10.0277   -6.4977 C.ar    1  UNL1       -0.0276
     33 C          -9.7782  -12.9739   -5.8391 C.3     1  UNL1       -0.0379
     34 H          -9.4164  -14.0019   -5.8575 H       1  UNL1        0.0278
     35 H         -10.7073  -12.9324   -6.4047 H       1  UNL1        0.0278
     36 H          -9.9964  -12.6932   -4.8108 H       1  UNL1        0.0278
     37 C          -7.1060   -8.6397   -6.0321 C.3     1  UNL1       -0.0379
     38 H          -7.5975   -8.4249   -5.0830 H       1  UNL1        0.0278
     39 H          -7.4431   -7.9125   -6.7728 H       1  UNL1        0.0278
     40 H          -6.0262   -8.5283   -5.9244 H       1  UNL1        0.0278
     41 C         -13.5246  -10.5632   -5.3500 C.ar    1  UNL1        0.1820
     42 C         -13.7288  -11.9511   -5.4437 C.ar    1  UNL1        0.0005
     43 C         -14.4480  -12.4623   -6.5099 C.ar    1  UNL1       -0.0547
     44 H         -14.5874  -13.5325   -6.5846 H       1  UNL1        0.0622
     45 C         -14.9921  -11.6298   -7.4713 C.ar    1  UNL1       -0.0610
     46 H         -15.5495  -12.0419   -8.3000 H       1  UNL1        0.0618
     47 C         -14.8248  -10.2612   -7.3564 C.ar    1  UNL1       -0.0547
     48 H         -15.2653   -9.6037   -8.0951 H       1  UNL1        0.0622
     49 C         -14.1021   -9.7139   -6.3101 C.ar    1  UNL1        0.0005
     50 C         -13.1992  -12.8711   -4.3826 C.3     1  UNL1       -0.0356
     51 H         -13.9390  -12.9850   -3.5882 H       1  UNL1        0.0279
     52 H         -12.2934  -12.4693   -3.9357 H       1  UNL1        0.0279
     53 H         -12.9886  -13.8555   -4.7950 H       1  UNL1        0.0279
     54 C         -13.9187   -8.2285   -6.2047 C.3     1  UNL1       -0.0356
     55 H         -14.1914   -7.8825   -5.2092 H       1  UNL1        0.0279
     56 H         -14.5344   -7.7119   -6.9384 H       1  UNL1        0.0279
     57 H         -12.8758   -7.9601   -6.3730 H       1  UNL1        0.0279
     58 C         -11.4963  -11.0951   -9.9443 C.ar    1  UNL1       -0.0320
     59 C         -10.7402  -10.8055  -11.0698 C.ar    1  UNL1       -0.0573
     60 H         -10.2141   -9.8632  -11.1352 H       1  UNL1        0.0621
     61 C         -10.6563  -11.7161  -12.1094 C.ar    1  UNL1       -0.0615
     62 H         -10.0669  -11.4808  -12.9840 H       1  UNL1        0.0618
     63 C         -11.3215  -12.9268  -12.0276 C.ar    1  UNL1       -0.0617
     64 H         -11.2539  -13.6375  -12.8385 H       1  UNL1        0.0618
     65 C         -12.0718  -13.2244  -10.9016 C.ar    1  UNL1       -0.0615
     66 H         -12.5906  -14.1698  -10.8336 H       1  UNL1        0.0618
     67 C         -12.1603  -12.3133   -9.8660 C.ar    1  UNL1       -0.0573
     68 H         -12.7408  -12.5337   -8.9826 H       1  UNL1        0.0621
@<TRIPOS>BOND
     1    62    61    1
     2    64    63    1
     3    61    63   ar
     4    61    59   ar
     5    63    65   ar
     6    60    59    1
     7    59    58   ar
     8    65    66    1
     9    65    67   ar
    10    58    67   ar
    11    58     8    1
    12    67    68    1
    13     9     8    1
    14    29    28    1
    15     8    10    1
    16     8     4    1
    17    46    45    1
    18    48    47    1
    19    28    30   ar
    20    28    26   ar
    21    31    30    1
    22    27    26    1
    23     4     7    1
    24    30    32   ar
    25    26    25   ar
    26    45    47   ar
    27    45    43   ar
    28    47    49   ar
    29    56    54    1
    30    39    37    1
    31    44    43    1
    32    43    42   ar
    33    32    37    1
    34    32    24   ar
    35     7     6    1
    36    25    24   ar
    37    25    33    1
    38    35    33    1
    39    57    54    1
    40    49    54    1
    41    49    41   ar
    42    54    55    1
    43    37    40    1
    44    37    38    1
    45    24     2    1
    46    34    33    1
    47    33    36    1
    48    42    41   ar
    49    42    50    1
    50    41     3    1
    51     6     2    1
    52     6     5    1
    53    53    50    1
    54    50    52    1
    55    50    51    1
    56     3     5    2
    57     5     1    1
    58    21    20    1
    59     1    11    1
    60    22    20    1
    61    20    11    1
    62    20    23    1
    63    17    16    1
    64    11    16    1
    65    11    12    1
    66    16    19    1
    67    16    18    1
    68    15    12    1
    69    12    13    1
    70    12    14    1
