@<TRIPOS>MOLECULE
1,2
 49 51 0 0 0
SMALL
GASTEIGER

@<TRIPOS>ATOM
      1 N          -2.2296    7.9659   11.6805 N.ar    1  UNL1       -0.2552
      2 N           0.2599    8.1919   10.3229 N.ar    1  UNL1       -0.2552
      3 C           2.6645    7.6243   10.6766 C.3     1  UNL1       -0.0223
      4 H           3.3817    8.4453   10.6455 H       1  UNL1        0.0292
      5 H           3.1623    6.7361   10.2871 H       1  UNL1        0.0292
      6 H           2.3732    7.4462   11.7138 H       1  UNL1        0.0292
      7 C           1.4796    7.9564    9.8335 C.ar    1  UNL1        0.0389
      8 C           1.4932    8.0682    8.4336 C.ar    1  UNL1       -0.0360
      9 H           2.3498    7.9313    7.8010 H       1  UNL1        0.0639
     10 C           0.2184    8.4025    8.0321 C.ar    1  UNL1       -0.0262
     11 C          -0.5698    8.4539    9.2312 C.ar    1  UNL1        0.0624
     12 C          -1.9582    8.6310    9.3297 C.3     1  UNL1        0.1010
     13 C          -2.7452    8.4407   10.4740 C.ar    1  UNL1        0.0624
     14 C          -4.1777    8.4928   10.5753 C.ar    1  UNL1       -0.0262
     15 C          -4.4843    7.9960   11.8227 C.ar    1  UNL1       -0.0360
     16 H          -5.4663    7.8707   12.2399 H       1  UNL1        0.0639
     17 C          -3.2712    7.6735   12.4605 C.ar    1  UNL1        0.0389
     18 C          -3.1336    7.0373   13.8023 C.3     1  UNL1       -0.0223
     19 H          -2.1044    6.7138   13.9644 H       1  UNL1        0.0292
     20 H          -3.8014    6.1784   13.8723 H       1  UNL1        0.0292
     21 H          -3.4098    7.7398   14.5898 H       1  UNL1        0.0292
     22 C          -5.1969    8.9882    9.6080 C.3     1  UNL1       -0.0379
     23 H          -4.9513    9.9838    9.2441 H       1  UNL1        0.0278
     24 H          -6.1660    9.0268   10.1027 H       1  UNL1        0.0278
     25 H          -5.2816    8.3345    8.7413 H       1  UNL1        0.0278
     26 C          -2.6854    8.9331    8.0721 C.ar    1  UNL1       -0.0222
     27 C          -3.2011    7.8854    7.3079 C.ar    1  UNL1       -0.0455
     28 C          -3.8765    8.1777    6.1319 C.ar    1  UNL1       -0.0556
     29 H          -4.2746    7.3674    5.5367 H       1  UNL1        0.0623
     30 C          -4.0502    9.4855    5.7041 C.ar    1  UNL1       -0.0499
     31 C          -3.5347   10.5135    6.4815 C.ar    1  UNL1       -0.0556
     32 H          -3.6660   11.5372    6.1592 H       1  UNL1        0.0623
     33 C          -2.8536   10.2553    7.6609 C.ar    1  UNL1       -0.0455
     34 C          -2.3060   11.3724    8.4971 C.3     1  UNL1       -0.0394
     35 H          -2.7370   11.3418    9.4982 H       1  UNL1        0.0278
     36 H          -2.5295   12.3384    8.0506 H       1  UNL1        0.0278
     37 H          -1.2259   11.2788    8.6050 H       1  UNL1        0.0278
     38 C          -3.0229    6.4672    7.7617 C.3     1  UNL1       -0.0394
     39 H          -1.9688    6.2481    7.9282 H       1  UNL1        0.0278
     40 H          -3.4162    5.7721    7.0236 H       1  UNL1        0.0278
     41 H          -3.5404    6.3041    8.7069 H       1  UNL1        0.0278
     42 C          -4.7978    9.7912    4.4416 C.3     1  UNL1       -0.0397
     43 H          -4.8455    8.9177    3.7959 H       1  UNL1        0.0278
     44 H          -4.3220   10.6054    3.8990 H       1  UNL1        0.0278
     45 H          -5.8179   10.0971    4.6762 H       1  UNL1        0.0278
     46 C          -0.1570    8.6438    6.6109 C.3     1  UNL1       -0.0379
     47 H          -0.5984    9.6294    6.4766 H       1  UNL1        0.0278
     48 H          -0.8765    7.9099    6.2524 H       1  UNL1        0.0278
     49 H           0.7378    8.5777    5.9945 H       1  UNL1        0.0278
@<TRIPOS>BOND
     1    43    42    1
     2    44    42    1
     3    42    45    1
     4    42    30    1
     5    29    28    1
     6    30    28   ar
     7    30    31   ar
     8    49    46    1
     9    28    27   ar
    10    32    31    1
    11    48    46    1
    12    47    46    1
    13    31    33   ar
    14    46    10    1
    15    40    38    1
    16    27    38    1
    17    27    26   ar
    18    33    26   ar
    19    33    34    1
    20    38    39    1
    21    38    41    1
    22     9     8    1
    23    10     8   ar
    24    10    11   ar
    25    36    34    1
    26    26    12    1
    27     8     7   ar
    28    34    37    1
    29    34    35    1
    30    25    22    1
    31    11    12    1
    32    11     2   ar
    33    23    22    1
    34    12    13    1
    35    22    24    1
    36    22    14    1
    37     7     2   ar
    38     7     3    1
    39     5     3    1
    40    13    14   ar
    41    13     1   ar
    42    14    15   ar
    43     4     3    1
    44     3     6    1
    45     1    17   ar
    46    15    16    1
    47    15    17   ar
    48    17    18    1
    49    18    20    1
    50    18    19    1
    51    18    21    1
