@<TRIPOS>MOLECULE
1,2
 49 51 0 0 0
SMALL
GASTEIGER

@<TRIPOS>ATOM
      1 N          -1.0101    9.3149   14.2931 N.ar    1  UNL1       -0.2552
      2 N           0.3253    6.8994   13.5454 N.ar    1  UNL1       -0.2552
      3 C           3.0226    7.7380   20.9169 C.3     1  UNL1       -0.0397
      4 H           2.3368    7.3383   21.6597 H       1  UNL1        0.0278
      5 H           3.3640    8.7182   21.2436 H       1  UNL1        0.0278
      6 H           3.8918    7.0813   20.8670 H       1  UNL1        0.0278
      7 C           2.3670    7.8251   19.5718 C.ar    1  UNL1       -0.0499
      8 C           1.2141    7.1070   19.2912 C.ar    1  UNL1       -0.0556
      9 H           0.7743    6.4874   20.0606 H       1  UNL1        0.0623
     10 C           0.6126    7.1660   18.0424 C.ar    1  UNL1       -0.0455
     11 C           1.1819    7.9682   17.0538 C.ar    1  UNL1       -0.0222
     12 C           2.3409    8.6997   17.3161 C.ar    1  UNL1       -0.0455
     13 C           2.9187    8.6165   18.5733 C.ar    1  UNL1       -0.0556
     14 H           3.8173    9.1805   18.7817 H       1  UNL1        0.0623
     15 C          -0.6305    6.3814   17.7447 C.3     1  UNL1       -0.0394
     16 H          -0.4353    5.6431   16.9672 H       1  UNL1        0.0278
     17 H          -1.4177    7.0377   17.3758 H       1  UNL1        0.0278
     18 H          -0.9865    5.8667   18.6341 H       1  UNL1        0.0278
     19 C           2.9351    9.5642   16.2452 C.3     1  UNL1       -0.0394
     20 H           3.0923    8.9905   15.3322 H       1  UNL1        0.0278
     21 H           3.8845    9.9852   16.5677 H       1  UNL1        0.0278
     22 H           2.2569   10.3814   15.9994 H       1  UNL1        0.0278
     23 C           0.5563    8.0448   15.7114 C.3     1  UNL1        0.1010
     24 C          -0.3875    9.0629   15.5140 C.ar    1  UNL1        0.0624
     25 C          -0.9022    9.9869   16.4870 C.ar    1  UNL1       -0.0262
     26 C          -1.8326   10.7560   15.8227 C.ar    1  UNL1       -0.0360
     27 H          -2.4243   11.5498   16.2387 H       1  UNL1        0.0639
     28 C          -1.8617   10.3212   14.4861 C.ar    1  UNL1        0.0389
     29 C          -0.5734   10.1594   17.9298 C.3     1  UNL1       -0.0379
     30 H          -0.8087    9.2663   18.5056 H       1  UNL1        0.0278
     31 H          -1.1551   10.9889   18.3283 H       1  UNL1        0.0278
     32 H           0.4831   10.3747   18.0769 H       1  UNL1        0.0278
     33 C          -2.7117   10.8758   13.3942 C.3     1  UNL1       -0.0223
     34 H          -2.2244   10.7270   12.4245 H       1  UNL1        0.0292
     35 H          -2.8803   11.9393   13.5522 H       1  UNL1        0.0292
     36 H          -3.6827   10.3771   13.3711 H       1  UNL1        0.0292
     37 C           0.9262    7.0467   14.7957 C.ar    1  UNL1        0.0624
     38 C           1.7940    5.9243   15.0180 C.ar    1  UNL1       -0.0262
     39 C           1.6439    5.1052   13.9185 C.ar    1  UNL1       -0.0360
     40 H           2.1304    4.1629   13.7497 H       1  UNL1        0.0639
     41 C           0.7308    5.7278   13.0499 C.ar    1  UNL1        0.0389
     42 C           2.7211    5.6281   16.1461 C.3     1  UNL1       -0.0379
     43 H           3.3764    6.4715   16.3537 H       1  UNL1        0.0278
     44 H           3.3327    4.7661   15.8849 H       1  UNL1        0.0278
     45 H           2.1812    5.3989   17.0633 H       1  UNL1        0.0278
     46 C           0.1996    5.1752   11.7701 C.3     1  UNL1       -0.0223
     47 H          -0.6069    5.8093   11.3930 H       1  UNL1        0.0292
     48 H          -0.1812    4.1672   11.9356 H       1  UNL1        0.0292
     49 H           0.9851    5.1140   11.0168 H       1  UNL1        0.0292
@<TRIPOS>BOND
     1    49    46    1
     2    47    46    1
     3    46    48    1
     4    46    41    1
     5    34    33    1
     6    41     2   ar
     7    41    39   ar
     8    36    33    1
     9    33    35    1
    10    33    28    1
    11     2    37   ar
    12    40    39    1
    13    39    38   ar
    14     1    28   ar
    15     1    24   ar
    16    28    26   ar
    17    37    38   ar
    18    37    23    1
    19    38    42    1
    20    20    19    1
    21    24    23    1
    22    24    25   ar
    23    23    11    1
    24    26    27    1
    25    26    25   ar
    26    44    42    1
    27    22    19    1
    28    42    43    1
    29    42    45    1
    30    19    21    1
    31    19    12    1
    32    25    29    1
    33    16    15    1
    34    11    12   ar
    35    11    10   ar
    36    12    13   ar
    37    17    15    1
    38    15    10    1
    39    15    18    1
    40    29    32    1
    41    29    31    1
    42    29    30    1
    43    10     8   ar
    44    13    14    1
    45    13     7   ar
    46     8     7   ar
    47     8     9    1
    48     7     3    1
    49     6     3    1
    50     3     5    1
    51     3     4    1
