@<TRIPOS>MOLECULE
1,2
 50 49 0 0 0
SMALL
GASTEIGER

@<TRIPOS>ATOM
      1 N           2.9954    8.6120   18.4046 N.3     1  UNL1        0.0000
      2 N           1.6058    9.5111   16.9016 N.3     1  UNL1        0.0000
      3 N           2.1783   10.8314   18.8081 N.3     1  UNL1        0.0000
      4 SI          3.3705   12.0669   18.4487 Si      1  UNL1        0.0000
      5 SI          0.9164   10.8467   20.0263 Si      1  UNL1        0.0000
      6 C           3.8427    8.6862   19.5806 C.3     1  UNL1        0.0000
      7 H           3.7434    9.6750   20.0449 H       1  UNL1        0.0000
      8 C           3.4490    7.6336   20.6209 C.3     1  UNL1        0.0000
      9 H           2.4148    7.7698   20.9245 H       1  UNL1        0.0000
     10 H           4.0845    7.7268   21.4997 H       1  UNL1        0.0000
     11 H           3.5707    6.6343   20.2089 H       1  UNL1        0.0000
     12 C           5.3047    8.4798   19.1733 C.3     1  UNL1        0.0000
     13 H           5.6120    9.2492   18.4697 H       1  UNL1        0.0000
     14 H           5.4187    7.5071   18.6970 H       1  UNL1        0.0000
     15 H           5.9510    8.5233   20.0478 H       1  UNL1        0.0000
     16 C           0.7562   10.5571   16.3697 C.3     1  UNL1        0.0000
     17 H           0.9303   11.5002   16.9057 H       1  UNL1        0.0000
     18 C          -0.7154   10.1559   16.5229 C.3     1  UNL1        0.0000
     19 H          -0.9824   10.0998   17.5741 H       1  UNL1        0.0000
     20 H          -0.8661    9.1756   16.0752 H       1  UNL1        0.0000
     21 H          -1.3641   10.8782   16.0307 H       1  UNL1        0.0000
     22 C           1.0975   10.7558   14.8893 C.3     1  UNL1        0.0000
     23 H           2.1062   11.1465   14.7830 H       1  UNL1        0.0000
     24 H           0.4016   11.4511   14.4242 H       1  UNL1        0.0000
     25 H           1.0449    9.7932   14.3751 H       1  UNL1        0.0000
     26 C           2.2644    9.6466   18.0407 C.3     1  UNL1        0.0000
     27 C           4.2693   11.6180   16.8271 C.3     1  UNL1        0.0000
     28 H           4.1131   10.5708   16.5796 H       1  UNL1        0.0000
     29 H           5.3390   11.7899   16.9069 H       1  UNL1        0.0000
     30 H           3.9082   12.2137   15.9939 H       1  UNL1        0.0000
     31 C           2.5147   13.7618   18.2650 C.3     1  UNL1        0.0000
     32 H           2.1841   14.1400   19.2261 H       1  UNL1        0.0000
     33 H           1.6535   13.7331   17.6060 H       1  UNL1        0.0000
     34 H           3.2154   14.4840   17.8586 H       1  UNL1        0.0000
     35 C           4.6782   12.2536   19.8322 C.3     1  UNL1        0.0000
     36 H           4.2236   12.3133   20.8152 H       1  UNL1        0.0000
     37 H           5.2423   13.1690   19.6799 H       1  UNL1        0.0000
     38 H           5.3885   11.4330   19.8481 H       1  UNL1        0.0000
     39 C          -0.3428   12.2463   19.6984 C.3     1  UNL1        0.0000
     40 H           0.0846   13.2185   19.9169 H       1  UNL1        0.0000
     41 H          -1.2084   12.1242   20.3425 H       1  UNL1        0.0000
     42 H          -0.6963   12.2667   18.6731 H       1  UNL1        0.0000
     43 C           1.6648   11.1643   21.7543 C.3     1  UNL1        0.0000
     44 H           2.0869   12.1616   21.8225 H       1  UNL1        0.0000
     45 H           2.4446   10.4539   22.0100 H       1  UNL1        0.0000
     46 H           0.8914   11.0901   22.5124 H       1  UNL1        0.0000
     47 C           0.0034    9.1683   20.0405 C.3     1  UNL1        0.0000
     48 H           0.1551    8.6430   20.9793 H       1  UNL1        0.0000
     49 H           0.3543    8.5236   19.2385 H       1  UNL1        0.0000
     50 H          -1.0685    9.2958   19.9182 H       1  UNL1        0.0000
@<TRIPOS>BOND
     1    25    22    1
     2    24    22    1
     3    23    22    1
     4    22    16    1
     5    30    27    1
     6    21    18    1
     7    20    18    1
     8    16    18    1
     9    16     2    1
    10    16    17    1
    11    18    19    1
    12    28    27    1
    13    27    29    1
    14    27     4    1
    15     2    26    1
    16    33    31    1
    17    34    31    1
    18    26     1    1
    19    26     3    1
    20    31     4    1
    21    31    32    1
    22     1     6    1
    23     4     3    1
    24     4    35    1
    25    13    12    1
    26    42    39    1
    27    14    12    1
    28     3     5    1
    29    12     6    1
    30    12    15    1
    31    49    47    1
    32     6     7    1
    33     6     8    1
    34    37    35    1
    35    39    40    1
    36    39     5    1
    37    39    41    1
    38    35    38    1
    39    35    36    1
    40    50    47    1
    41     5    47    1
    42     5    43    1
    43    47    48    1
    44    11     8    1
    45     8     9    1
    46     8    10    1
    47    43    44    1
    48    43    45    1
    49    43    46    1
