@<TRIPOS>MOLECULE
3,4
 50 49 0 0 0
SMALL
GASTEIGER

@<TRIPOS>ATOM
      1 SI          2.3158    7.8229    0.9570 Si      1  UNL1        0.0000
      2 SI          5.4345    7.4847    0.6686 Si      1  UNL1        0.0000
      3 N           3.7010    4.9325    2.2945 N.3     1  UNL1        0.0000
      4 N           4.0382    6.6138    3.7287 N.3     1  UNL1        0.0000
      5 N           3.8750    7.1446    1.3967 N.3     1  UNL1        0.0000
      6 C           3.4504    4.3804    0.9769 C.3     1  UNL1        0.0000
      7 H           3.4783    5.1788    0.2250 H       1  UNL1        0.0000
      8 C           2.0671    3.7224    0.9570 C.3     1  UNL1        0.0000
      9 H           1.2965    4.4679    1.1378 H       1  UNL1        0.0000
     10 H           2.0137    2.9673    1.7409 H       1  UNL1        0.0000
     11 H           1.8812    3.2526   -0.0070 H       1  UNL1        0.0000
     12 C           4.5243    3.3458    0.6280 C.3     1  UNL1        0.0000
     13 H           5.4988    3.8223    0.5620 H       1  UNL1        0.0000
     14 H           4.3010    2.8770   -0.3283 H       1  UNL1        0.0000
     15 H           4.5576    2.5773    1.3996 H       1  UNL1        0.0000
     16 C           4.3177    8.0038    4.0426 C.3     1  UNL1        0.0000
     17 H           4.2551    8.6077    3.1283 H       1  UNL1        0.0000
     18 C           3.3028    8.5588    5.0461 C.3     1  UNL1        0.0000
     19 H           2.2903    8.4281    4.6757 H       1  UNL1        0.0000
     20 H           3.4832    9.6205    5.2031 H       1  UNL1        0.0000
     21 H           3.3991    8.0476    6.0013 H       1  UNL1        0.0000
     22 C           5.7293    8.1225    4.6248 C.3     1  UNL1        0.0000
     23 H           6.4707    7.8138    3.8927 H       1  UNL1        0.0000
     24 H           5.8109    7.4765    5.4967 H       1  UNL1        0.0000
     25 H           5.9334    9.1493    4.9228 H       1  UNL1        0.0000
     26 C           3.8737    6.2321    2.4772 C.3     1  UNL1        0.0000
     27 C           1.0248    7.3872    2.2895 C.3     1  UNL1        0.0000
     28 H           0.6943    8.2715    2.8265 H       1  UNL1        0.0000
     29 H           1.4350    6.6902    3.0146 H       1  UNL1        0.0000
     30 H           0.1423    6.9313    1.8508 H       1  UNL1        0.0000
     31 C           1.7012    7.1737   -0.7334 C.3     1  UNL1        0.0000
     32 H           2.4420    7.3088   -1.5137 H       1  UNL1        0.0000
     33 H           0.8132    7.7230   -1.0315 H       1  UNL1        0.0000
     34 H           1.4388    6.1211   -0.7083 H       1  UNL1        0.0000
     35 C           2.4476    9.7204    0.8053 C.3     1  UNL1        0.0000
     36 H           3.0218   10.0093   -0.0685 H       1  UNL1        0.0000
     37 H           2.9066   10.1794    1.6748 H       1  UNL1        0.0000
     38 H           1.4563   10.1479    0.6936 H       1  UNL1        0.0000
     39 C           5.3488    7.1856   -1.2146 C.3     1  UNL1        0.0000
     40 H           4.7248    7.9273   -1.7018 H       1  UNL1        0.0000
     41 H           4.9601    6.2042   -1.4669 H       1  UNL1        0.0000
     42 H           6.3411    7.2664   -1.6467 H       1  UNL1        0.0000
     43 C           6.7601    6.3503    1.4371 C.3     1  UNL1        0.0000
     44 H           7.1023    5.5990    0.7316 H       1  UNL1        0.0000
     45 H           6.3680    5.8362    2.3106 H       1  UNL1        0.0000
     46 H           7.6343    6.9162    1.7463 H       1  UNL1        0.0000
     47 C           5.9939    9.2950    0.9229 C.3     1  UNL1        0.0000
     48 H           5.2853   10.0021    0.5072 H       1  UNL1        0.0000
     49 H           6.9420    9.4543    0.4178 H       1  UNL1        0.0000
     50 H           6.1359    9.5471    1.9688 H       1  UNL1        0.0000
@<TRIPOS>BOND
     1    40    39    1
     2    42    39    1
     3    32    31    1
     4    41    39    1
     5    39     2    1
     6    33    31    1
     7    31    34    1
     8    31     1    1
     9    14    12    1
    10    36    35    1
    11    11     8    1
    12     7     6    1
    13    49    47    1
    14    48    47    1
    15    13    12    1
    16    12     6    1
    17    12    15    1
    18     2    47    1
    19     2     5    1
    20     2    43    1
    21    38    35    1
    22    44    43    1
    23    35     1    1
    24    35    37    1
    25    47    50    1
    26     1     5    1
    27     1    27    1
    28     8     6    1
    29     8     9    1
    30     8    10    1
    31     6     3    1
    32     5    26    1
    33    43    46    1
    34    43    45    1
    35    30    27    1
    36    27    28    1
    37    27    29    1
    38     3    26    1
    39    26     4    1
    40    17    16    1
    41     4    16    1
    42    23    22    1
    43    16    22    1
    44    16    18    1
    45    22    25    1
    46    22    24    1
    47    19    18    1
    48    18    20    1
    49    18    21    1
