@<TRIPOS>MOLECULE
3,4
 50 49 0 0 0
SMALL
GASTEIGER

@<TRIPOS>ATOM
      1 SI          8.6062    4.1219    7.0818 Si      1  UNL1        0.0000
      2 SI          6.9287    1.5263    7.7477 Si      1  UNL1        0.0000
      3 N           6.1067    3.1921    4.8437 N.3     1  UNL1        0.0000
      4 N           5.1578    4.2538    6.5756 N.3     1  UNL1        0.0000
      5 N           7.2010    3.0776    6.9722 N.3     1  UNL1        0.0000
      6 C           7.2139    2.4723    4.2354 C.3     1  UNL1        0.0000
      7 H           7.9739    2.2636    4.9973 H       1  UNL1        0.0000
      8 C           6.7645    1.1331    3.6439 C.3     1  UNL1        0.0000
      9 H           6.2503    0.5405    4.3947 H       1  UNL1        0.0000
     10 H           7.6330    0.5780    3.2940 H       1  UNL1        0.0000
     11 H           6.0977    1.2944    2.8000 H       1  UNL1        0.0000
     12 C           7.8443    3.3291    3.1344 C.3     1  UNL1        0.0000
     13 H           8.2094    4.2673    3.5447 H       1  UNL1        0.0000
     14 H           7.0976    3.5462    2.3738 H       1  UNL1        0.0000
     15 H           8.6753    2.7993    2.6725 H       1  UNL1        0.0000
     16 C           5.0814    4.6323    7.9750 C.3     1  UNL1        0.0000
     17 H           6.0088    4.3448    8.4868 H       1  UNL1        0.0000
     18 C           4.9061    6.1480    8.0949 C.3     1  UNL1        0.0000
     19 H           4.7845    6.4326    9.1381 H       1  UNL1        0.0000
     20 H           4.0219    6.4560    7.5386 H       1  UNL1        0.0000
     21 H           5.7735    6.6645    7.6931 H       1  UNL1        0.0000
     22 C           3.9043    3.9283    8.6613 C.3     1  UNL1        0.0000
     23 H           3.9979    2.8507    8.5606 H       1  UNL1        0.0000
     24 H           2.9677    4.2433    8.2049 H       1  UNL1        0.0000
     25 H           3.8824    4.1824    9.7197 H       1  UNL1        0.0000
     26 C           6.1564    3.5151    6.1237 C.3     1  UNL1        0.0000
     27 C           8.2392    5.7586    6.1760 C.3     1  UNL1        0.0000
     28 H           8.0064    6.5587    6.8719 H       1  UNL1        0.0000
     29 H           7.3912    5.6429    5.5068 H       1  UNL1        0.0000
     30 H           9.0908    6.0845    5.5858 H       1  UNL1        0.0000
     31 C           9.0241    4.4733    8.9103 C.3     1  UNL1        0.0000
     32 H           8.1608    4.7830    9.4900 H       1  UNL1        0.0000
     33 H           9.7628    5.2660    8.9727 H       1  UNL1        0.0000
     34 H           9.4505    3.5988    9.3899 H       1  UNL1        0.0000
     35 C          10.1675    3.3467    6.2947 C.3     1  UNL1        0.0000
     36 H          10.1169    3.3186    5.2109 H       1  UNL1        0.0000
     37 H          10.3404    2.3344    6.6424 H       1  UNL1        0.0000
     38 H          11.0396    3.9351    6.5643 H       1  UNL1        0.0000
     39 C           5.2965    0.7521    7.1280 C.3     1  UNL1        0.0000
     40 H           5.4765   -0.1781    6.5968 H       1  UNL1        0.0000
     41 H           4.7703    1.4232    6.4534 H       1  UNL1        0.0000
     42 H           4.6321    0.5209    7.9560 H       1  UNL1        0.0000
     43 C           8.3670    0.3300    7.3647 C.3     1  UNL1        0.0000
     44 H           8.5683    0.2428    6.3019 H       1  UNL1        0.0000
     45 H           8.1293   -0.6617    7.7362 H       1  UNL1        0.0000
     46 H           9.2828    0.6443    7.8542 H       1  UNL1        0.0000
     47 C           6.8437    1.7046    9.6482 C.3     1  UNL1        0.0000
     48 H           7.7807    2.0647   10.0581 H       1  UNL1        0.0000
     49 H           6.6466    0.7357   10.0969 H       1  UNL1        0.0000
     50 H           6.0607    2.3813    9.9734 H       1  UNL1        0.0000
@<TRIPOS>BOND
     1    14    12    1
     2    15    12    1
     3    11     8    1
     4    12    13    1
     5    12     6    1
     6    10     8    1
     7     8     6    1
     8     8     9    1
     9     6     3    1
    10     6     7    1
    11     3    26    1
    12    36    35    1
    13    29    27    1
    14    30    27    1
    15    26     4    1
    16    26     5    1
    17    27    28    1
    18    27     1    1
    19    35    38    1
    20    35    37    1
    21    35     1    1
    22    44    43    1
    23    41    39    1
    24     4    16    1
    25    40    39    1
    26     5     1    1
    27     5     2    1
    28     1    31    1
    29    39     2    1
    30    39    42    1
    31    43    45    1
    32    43     2    1
    33    43    46    1
    34    20    18    1
    35    21    18    1
    36     2    47    1
    37    16    18    1
    38    16    17    1
    39    16    22    1
    40    18    19    1
    41    24    22    1
    42    23    22    1
    43    22    25    1
    44    31    33    1
    45    31    34    1
    46    31    32    1
    47    47    50    1
    48    47    48    1
    49    47    49    1
