@<TRIPOS>MOLECULE
1,2
 50 49 0 0 0
SMALL
GASTEIGER

@<TRIPOS>ATOM
      1 N           0.5289    6.2443   15.2130 N.3     1  UNL1        0.0000
      2 N           1.4334    5.3894   17.0659 N.3     1  UNL1        0.0000
      3 N          -0.4317    4.2379   16.1156 N.3     1  UNL1        0.0000
      4 SI          0.0186    2.7690   15.2696 Si      1  UNL1        0.0000
      5 SI         -1.9529    4.6120   16.9054 Si      1  UNL1        0.0000
      6 C          -0.3176    6.1595   14.0383 C.3     1  UNL1        0.0000
      7 H          -0.9504    5.2657   14.0998 H       1  UNL1        0.0000
      8 C          -1.2291    7.3836   13.9230 C.3     1  UNL1        0.0000
      9 H          -1.8800    7.4518   14.7905 H       1  UNL1        0.0000
     10 H          -1.8464    7.3055   13.0300 H       1  UNL1        0.0000
     11 H          -0.6303    8.2896   13.8554 H       1  UNL1        0.0000
     12 C           0.5615    6.0510   12.7875 C.3     1  UNL1        0.0000
     13 H           1.1772    5.1562   12.8392 H       1  UNL1        0.0000
     14 H           1.2142    6.9207   12.7224 H       1  UNL1        0.0000
     15 H          -0.0547    6.0036   11.8917 H       1  UNL1        0.0000
     16 C           1.5489    4.4347   18.1480 C.3     1  UNL1        0.0000
     17 H           1.0125    3.5073   17.9012 H       1  UNL1        0.0000
     18 C           3.0354    4.1161   18.3396 C.3     1  UNL1        0.0000
     19 H           3.4301    3.6164   17.4579 H       1  UNL1        0.0000
     20 H           3.1853    3.4730   19.2046 H       1  UNL1        0.0000
     21 H           3.5879    5.0485   18.4821 H       1  UNL1        0.0000
     22 C           0.9614    5.0288   19.4336 C.3     1  UNL1        0.0000
     23 H          -0.1147    5.1389   19.3388 H       1  UNL1        0.0000
     24 H           1.3949    6.0129   19.6023 H       1  UNL1        0.0000
     25 H           1.1779    4.3897   20.2877 H       1  UNL1        0.0000
     26 C           0.5142    5.2890   16.1210 C.3     1  UNL1        0.0000
     27 C           1.8960    2.7919   14.9430 C.3     1  UNL1        0.0000
     28 H           2.2777    3.8076   14.9841 H       1  UNL1        0.0000
     29 H           2.1332    2.3826   13.9656 H       1  UNL1        0.0000
     30 H           2.4367    2.2052   15.6793 H       1  UNL1        0.0000
     31 C          -0.8890    2.5714   13.5969 C.3     1  UNL1        0.0000
     32 H          -1.9532    2.7627   13.6869 H       1  UNL1        0.0000
     33 H          -0.7722    1.5539   13.2353 H       1  UNL1        0.0000
     34 H          -0.5000    3.2349   12.8311 H       1  UNL1        0.0000
     35 C          -0.4404    1.2487   16.3254 C.3     1  UNL1        0.0000
     36 H          -1.5146    1.1059   16.3622 H       1  UNL1        0.0000
     37 H          -0.0808    1.3168   17.3465 H       1  UNL1        0.0000
     38 H          -0.0105    0.3548   15.8846 H       1  UNL1        0.0000
     39 C          -3.4099    4.4336   15.6826 C.3     1  UNL1        0.0000
     40 H          -3.5183    3.4067   15.3487 H       1  UNL1        0.0000
     41 H          -3.3005    5.0599   14.8029 H       1  UNL1        0.0000
     42 H          -4.3385    4.7126   16.1708 H       1  UNL1        0.0000
     43 C          -1.9226    6.4003   17.5788 C.3     1  UNL1        0.0000
     44 H          -0.9524    6.8658   17.4195 H       1  UNL1        0.0000
     45 H          -2.1328    6.4307   18.6440 H       1  UNL1        0.0000
     46 H          -2.6704    7.0186   17.0906 H       1  UNL1        0.0000
     47 C          -2.2849    3.3977   18.3441 C.3     1  UNL1        0.0000
     48 H          -1.3913    3.1539   18.9085 H       1  UNL1        0.0000
     49 H          -2.7043    2.4671   17.9780 H       1  UNL1        0.0000
     50 H          -3.0066    3.8227   19.0357 H       1  UNL1        0.0000
@<TRIPOS>BOND
     1    15    12    1
     2    14    12    1
     3    12    13    1
     4    12     6    1
     5    34    31    1
     6    10     8    1
     7    33    31    1
     8    31    32    1
     9    31     4    1
    10    11     8    1
    11     8     6    1
    12     8     9    1
    13    29    27    1
    14     6     7    1
    15     6     1    1
    16    41    39    1
    17    27    28    1
    18    27     4    1
    19    27    30    1
    20     1    26    1
    21     4     3    1
    22     4    35    1
    23    40    39    1
    24    39    42    1
    25    39     5    1
    26    38    35    1
    27     3    26    1
    28     3     5    1
    29    26     2    1
    30    35    36    1
    31    35    37    1
    32     5    43    1
    33     5    47    1
    34     2    16    1
    35    46    43    1
    36    44    43    1
    37    19    18    1
    38    43    45    1
    39    17    16    1
    40    49    47    1
    41    16    18    1
    42    16    22    1
    43    18    21    1
    44    18    20    1
    45    47    48    1
    46    47    50    1
    47    23    22    1
    48    22    24    1
    49    22    25    1
