@<TRIPOS>MOLECULE
1,2
 22 24 0 0 0
SMALL
GASTEIGER

@<TRIPOS>ATOM
      1 N           9.2509    3.7712    0.6923 N.pl3   1  UNL1       -0.2201
      2 N           8.2849    5.3845    2.6202 N.pl3   1  UNL1       -0.2201
      3 C           9.0128    5.0592    0.3727 C.ar    1  UNL1        0.0836
      4 C           8.4834    5.9167    1.3980 C.ar    1  UNL1        0.0836
      5 C           7.8435    6.1787    3.5777 C.2     1  UNL1        0.0175
      6 H           7.7068    5.7152    4.5451 H       1  UNL1        0.0802
      7 C           7.5496    7.5323    3.3793 C.2     1  UNL1       -0.0454
      8 H           7.1842    8.1243    4.2034 H       1  UNL1        0.0631
      9 C           7.7367    8.0858    2.1366 C.2     1  UNL1       -0.0515
     10 H           7.5248    9.1280    1.9447 H       1  UNL1        0.0624
     11 C           8.2265    7.2748    1.1001 C.ar    1  UNL1       -0.0001
     12 C           8.4891    7.7726   -0.2080 C.ar    1  UNL1       -0.0521
     13 H           8.2836    8.8139   -0.4078 H       1  UNL1        0.0624
     14 C           8.9989    6.9679   -1.1706 C.ar    1  UNL1       -0.0521
     15 H           9.2114    7.3504   -2.1580 H       1  UNL1        0.0624
     16 C           9.2786    5.5959   -0.9079 C.ar    1  UNL1       -0.0001
     17 C           9.8224    4.7335   -1.8744 C.2     1  UNL1       -0.0515
     18 H          10.0443    5.1102   -2.8625 H       1  UNL1        0.0624
     19 C          10.0560    3.4227   -1.5355 C.2     1  UNL1       -0.0454
     20 H          10.4688    2.7290   -2.2504 H       1  UNL1        0.0631
     21 C           9.7489    2.9838   -0.2437 C.2     1  UNL1        0.0175
     22 H           9.9037    1.9535    0.0417 H       1  UNL1        0.0802
@<TRIPOS>BOND
     1    18    17    1
     2    20    19    1
     3    15    14    1
     4    17    19    1
     5    17    16    2
     6    19    21    2
     7    14    16   ar
     8    14    12   ar
     9    16     3   ar
    10    13    12    1
    11    21    22    1
    12    21     1    1
    13    12    11   ar
    14     3     1    1
    15     3     4   ar
    16    11     4   ar
    17    11     9    2
    18     4     2    1
    19    10     9    1
    20     9     7    1
    21     2     5    1
    22     7     5    2
    23     7     8    1
    24     5     6    1
