@<TRIPOS>MOLECULE
3,4
 54 55 0 0 0
SMALL
GASTEIGER

@<TRIPOS>ATOM
      1 SI          5.0869   10.2275    3.0761 Si      1  UNL1        0.0000
      2 SI          8.7006    7.4240    0.9344 Si      1  UNL1        0.0000
      3 N           6.8268   10.2744    3.2685 N.pl3   1  UNL1        0.0000
      4 N           8.8401    8.6962    2.1145 N.3     1  UNL1        0.0000
      5 C           7.6012   11.2788    2.8775 C.2     1  UNL1        0.0000
      6 C           8.8610   11.0951    2.2875 C.2     1  UNL1        0.0000
      7 H           9.4387   11.9798    2.0564 H       1  UNL1        0.0000
      8 C           9.3703    9.8776    1.8235 C.3     1  UNL1        0.0000
      9 C           7.1417   12.6783    3.0320 C.ar    1  UNL1        0.0000
     10 C           7.3477   13.6395    2.0464 C.ar    1  UNL1        0.0000
     11 H           7.8225   13.3619    1.1170 H       1  UNL1        0.0000
     12 C           6.9170   14.9397    2.2376 C.ar    1  UNL1        0.0000
     13 H           7.0695   15.6751    1.4610 H       1  UNL1        0.0000
     14 C           6.2894   15.3011    3.4184 C.ar    1  UNL1        0.0000
     15 H           5.9580   16.3183    3.5660 H       1  UNL1        0.0000
     16 C           6.0861   14.3524    4.4072 C.ar    1  UNL1        0.0000
     17 H           5.5998   14.6298    5.3311 H       1  UNL1        0.0000
     18 C           6.5040   13.0491    4.2130 C.ar    1  UNL1        0.0000
     19 H           6.3588   12.3027    4.9796 H       1  UNL1        0.0000
     20 C          10.5254    9.9720    0.8991 C.ar    1  UNL1        0.0000
     21 C          10.4849   10.8263   -0.1988 C.ar    1  UNL1        0.0000
     22 H           9.5954   11.4106   -0.3842 H       1  UNL1        0.0000
     23 C          11.5612   10.9074   -1.0634 C.ar    1  UNL1        0.0000
     24 H          11.5144   11.5635   -1.9205 H       1  UNL1        0.0000
     25 C          12.6989   10.1521   -0.8311 C.ar    1  UNL1        0.0000
     26 H          13.5417   10.2225   -1.5028 H       1  UNL1        0.0000
     27 C          12.7493    9.3049    0.2631 C.ar    1  UNL1        0.0000
     28 H          13.6327    8.7121    0.4508 H       1  UNL1        0.0000
     29 C          11.6658    9.2073    1.1168 C.ar    1  UNL1        0.0000
     30 H          11.7001    8.5418    1.9646 H       1  UNL1        0.0000
     31 C           4.4447   11.6148    1.9244 C.3     1  UNL1        0.0000
     32 H           5.1078   11.7630    1.0784 H       1  UNL1        0.0000
     33 H           4.3491   12.5655    2.4368 H       1  UNL1        0.0000
     34 H           3.4671   11.3535    1.5340 H       1  UNL1        0.0000
     35 C           4.7369    8.5611    2.2070 C.3     1  UNL1        0.0000
     36 H           5.3376    8.4315    1.3114 H       1  UNL1        0.0000
     37 H           3.6917    8.4914    1.9209 H       1  UNL1        0.0000
     38 H           4.9474    7.7300    2.8732 H       1  UNL1        0.0000
     39 C           4.0906   10.2920    4.7077 C.3     1  UNL1        0.0000
     40 H           4.2557   11.1973    5.2840 H       1  UNL1        0.0000
     41 H           4.3228    9.4374    5.3357 H       1  UNL1        0.0000
     42 H           3.0306   10.2419    4.4794 H       1  UNL1        0.0000
     43 C           7.7177    6.0759    1.8680 C.3     1  UNL1        0.0000
     44 H           6.7603    5.8887    1.3921 H       1  UNL1        0.0000
     45 H           7.5164    6.3763    2.9018 H       1  UNL1        0.0000
     46 H           8.2511    5.1306    1.8914 H       1  UNL1        0.0000
     47 C           7.7121    8.1444   -0.5434 C.3     1  UNL1        0.0000
     48 H           8.3760    8.6783   -1.2173 H       1  UNL1        0.0000
     49 H           6.9530    8.8461   -0.2112 H       1  UNL1        0.0000
     50 H           7.2213    7.3649   -1.1167 H       1  UNL1        0.0000
     51 C          10.2421    6.6131    0.1315 C.3     1  UNL1        0.0000
     52 H          10.6956    7.2741   -0.6002 H       1  UNL1        0.0000
     53 H           9.9444    5.7074   -0.3886 H       1  UNL1        0.0000
     54 H          11.0111    6.3433    0.8467 H       1  UNL1        0.0000
@<TRIPOS>BOND
     1    24    23    1
     2    26    25    1
     3    48    47    1
     4    50    47    1
     5    23    25   ar
     6    23    21   ar
     7    25    27   ar
     8    52    51    1
     9    47    49    1
    10    47     2    1
    11    53    51    1
    12    22    21    1
    13    21    20   ar
    14    51    54    1
    15    51     2    1
    16    27    28    1
    17    27    29   ar
    18    20    29   ar
    19    20     8    1
    20     2    43    1
    21     2     4    1
    22    32    31    1
    23    29    30    1
    24    11    10    1
    25    36    35    1
    26    44    43    1
    27    13    12    1
    28    34    31    1
    29     8     4    1
    30     8     6    1
    31    43    46    1
    32    43    45    1
    33    37    35    1
    34    31    33    1
    35    31     1    1
    36    10    12   ar
    37    10     9   ar
    38     7     6    1
    39    35    38    1
    40    35     1    1
    41    12    14   ar
    42     6     5    2
    43     5     9    1
    44     5     3    1
    45     9    18   ar
    46     1     3    1
    47     1    39    1
    48    14    15    1
    49    14    16   ar
    50    18    16   ar
    51    18    19    1
    52    16    17    1
    53    42    39    1
    54    39    40    1
    55    39    41    1
