@<TRIPOS>MOLECULE
3,4
 54 55 0 0 0
SMALL
GASTEIGER

@<TRIPOS>ATOM
      1 SI          8.6360   10.9895    7.0348 Si      1  UNL1        0.0000
      2 SI          9.6169    6.0637    6.0413 Si      1  UNL1        0.0000
      3 N           9.2012   10.2122    5.5818 N.pl3   1  UNL1        0.0000
      4 N           9.7662    7.5035    5.0574 N.3     1  UNL1        0.0000
      5 C          10.4295   10.3831    5.1116 C.2     1  UNL1        0.0000
      6 C          11.1946    9.3640    4.5336 C.2     1  UNL1        0.0000
      7 H          12.1402    9.6585    4.0989 H       1  UNL1        0.0000
      8 C          10.9139    7.9915    4.6040 C.3     1  UNL1        0.0000
      9 C          11.1046   11.6972    5.2405 C.ar    1  UNL1        0.0000
     10 C          10.4897   12.8544    4.7767 C.ar    1  UNL1        0.0000
     11 H           9.5123   12.7873    4.3259 H       1  UNL1        0.0000
     12 C          11.1265   14.0774    4.8829 C.ar    1  UNL1        0.0000
     13 H          10.6411   14.9672    4.5093 H       1  UNL1        0.0000
     14 C          12.3765   14.1621    5.4728 C.ar    1  UNL1        0.0000
     15 H          12.8703   15.1183    5.5636 H       1  UNL1        0.0000
     16 C          12.9907   13.0156    5.9493 C.ar    1  UNL1        0.0000
     17 H          13.9625   13.0783    6.4172 H       1  UNL1        0.0000
     18 C          12.3641   11.7890    5.8248 C.ar    1  UNL1        0.0000
     19 H          12.8409   10.8955    6.2011 H       1  UNL1        0.0000
     20 C          11.9855    7.0739    4.1527 C.ar    1  UNL1        0.0000
     21 C          13.3280    7.2952    4.4460 C.ar    1  UNL1        0.0000
     22 H          13.6119    8.1382    5.0584 H       1  UNL1        0.0000
     23 C          14.2965    6.4221    3.9849 C.ar    1  UNL1        0.0000
     24 H          15.3346    6.5948    4.2291 H       1  UNL1        0.0000
     25 C          13.9407    5.3275    3.2141 C.ar    1  UNL1        0.0000
     26 H          14.7001    4.6503    2.8522 H       1  UNL1        0.0000
     27 C          12.6074    5.1031    2.9124 C.ar    1  UNL1        0.0000
     28 H          12.3251    4.2519    2.3099 H       1  UNL1        0.0000
     29 C          11.6365    5.9670    3.3833 C.ar    1  UNL1        0.0000
     30 H          10.5939    5.8092    3.1497 H       1  UNL1        0.0000
     31 C           8.5243   12.8990    7.1802 C.3     1  UNL1        0.0000
     32 H           9.5085   13.3405    7.2987 H       1  UNL1        0.0000
     33 H           7.9432   13.1609    8.0595 H       1  UNL1        0.0000
     34 H           8.0554   13.3722    6.3246 H       1  UNL1        0.0000
     35 C           9.8163   10.4616    8.4501 C.3     1  UNL1        0.0000
     36 H          10.7085   11.0811    8.4528 H       1  UNL1        0.0000
     37 H          10.1349    9.4301    8.3353 H       1  UNL1        0.0000
     38 H           9.3440   10.5609    9.4217 H       1  UNL1        0.0000
     39 C           6.8870   10.2537    7.2535 C.3     1  UNL1        0.0000
     40 H           6.4880    9.8961    6.2999 H       1  UNL1        0.0000
     41 H           6.1896   10.9832    7.6537 H       1  UNL1        0.0000
     42 H           6.8979    9.4115    7.9389 H       1  UNL1        0.0000
     43 C           8.6459    6.6249    7.5895 C.3     1  UNL1        0.0000
     44 H           9.1659    7.4031    8.1403 H       1  UNL1        0.0000
     45 H           8.4902    5.7892    8.2644 H       1  UNL1        0.0000
     46 H           7.6679    7.0062    7.3124 H       1  UNL1        0.0000
     47 C          11.3000    5.3952    6.6612 C.3     1  UNL1        0.0000
     48 H          11.8118    4.8018    5.9120 H       1  UNL1        0.0000
     49 H          11.1524    4.7665    7.5327 H       1  UNL1        0.0000
     50 H          11.9637    6.2041    6.9486 H       1  UNL1        0.0000
     51 C           8.6717    4.6349    5.1920 C.3     1  UNL1        0.0000
     52 H           9.1627    4.2614    4.2986 H       1  UNL1        0.0000
     53 H           7.6643    4.9416    4.9276 H       1  UNL1        0.0000
     54 H           8.5818    3.8037    5.8841 H       1  UNL1        0.0000
@<TRIPOS>BOND
     1    28    27    1
     2    26    25    1
     3    27    25   ar
     4    27    29   ar
     5    30    29    1
     6    25    23   ar
     7    29    20   ar
     8    23    24    1
     9    23    21   ar
    10     7     6    1
    11    20    21   ar
    12    20     8    1
    13    52    51    1
    14    11    10    1
    15    21    22    1
    16    13    12    1
    17     6     8    1
    18     6     5    2
    19     8     4    1
    20    10    12   ar
    21    10     9   ar
    22    12    14   ar
    23    53    51    1
    24     4     2    1
    25     5     9    1
    26     5     3    1
    27    51    54    1
    28    51     2    1
    29     9    18   ar
    30    14    15    1
    31    14    16   ar
    32     3     1    1
    33    18    16   ar
    34    18    19    1
    35    48    47    1
    36    16    17    1
    37     2    47    1
    38     2    43    1
    39    40    39    1
    40    34    31    1
    41    47    50    1
    42    47    49    1
    43     1    31    1
    44     1    39    1
    45     1    35    1
    46    31    32    1
    47    31    33    1
    48    39    41    1
    49    39    42    1
    50    46    43    1
    51    43    44    1
    52    43    45    1
    53    37    35    1
    54    35    36    1
    55    35    38    1
