@<TRIPOS>MOLECULE
2,3
 18 17 0 0 0
SMALL
GASTEIGER

@<TRIPOS>ATOM
      1 SI          5.4282   -0.1812   11.3343 Si      1  UNL1        0.0000
      2 N           5.9428    2.1692    9.2715 N.pl3   1  UNL1        0.0000
      3 N           5.9402    0.9390    8.7732 N.2     1  UNL1        0.0000
      4 C           5.7114   -0.1298    9.4627 C.2     1  UNL1        0.0000
      5 C           6.9775    0.4979   12.2387 C.3     1  UNL1        0.0000
      6 H           6.7744    0.6503   13.2950 H       1  UNL1        0.0000
      7 H           7.3175    1.4487   11.8324 H       1  UNL1        0.0000
      8 H           7.8068   -0.2011   12.1684 H       1  UNL1        0.0000
      9 C           3.8808    0.8077   11.8735 C.3     1  UNL1        0.0000
     10 H           3.6416    0.6052   12.9138 H       1  UNL1        0.0000
     11 H           3.0133    0.5320   11.2804 H       1  UNL1        0.0000
     12 H           4.0123    1.8819   11.7738 H       1  UNL1        0.0000
     13 C           5.1861   -2.0115   11.7958 C.3     1  UNL1        0.0000
     14 H           5.0895   -2.1233   12.8704 H       1  UNL1        0.0000
     15 H           6.0242   -2.6228   11.4773 H       1  UNL1        0.0000
     16 H           4.2892   -2.4211   11.3430 H       1  UNL1        0.0000
     17 H           5.7774    2.2216   10.2885 H       1  UNL1        0.0000
     18 H           5.7395   -1.0460    8.8836 H       1  UNL1        0.0000
@<TRIPOS>BOND
     1     3     2    1
     2     3     4    2
     3    18     4    1
     4     2    17    1
     5     4     1    1
     6    11     9    1
     7     1    13    1
     8     1     9    1
     9     1     5    1
    10    16    13    1
    11    15    13    1
    12    12     9    1
    13    13    14    1
    14     7     5    1
    15     9    10    1
    16     8     5    1
    17     5     6    1
