@<TRIPOS>MOLECULE
1,2
 54 57 0 0 0
SMALL
GASTEIGER

@<TRIPOS>ATOM
      1 N           6.2465    4.8855   12.0892 N.3     1  UNL1       -0.2205
      2 N           4.0184    6.0888   12.3198 N.3     1  UNL1       -0.2205
      3 C           7.4470    4.5884   11.7106 C.3     1  UNL1        0.1140
      4 C           7.6555    4.1403   10.3358 C.ar    1  UNL1       -0.0191
      5 C           6.5993    3.5730    9.6133 C.ar    1  UNL1       -0.0564
      6 C           6.7896    3.1591    8.3078 C.ar    1  UNL1       -0.0614
      7 C           8.0247    3.3153    7.6961 C.ar    1  UNL1       -0.0617
      8 C           9.0769    3.8759    8.4045 C.ar    1  UNL1       -0.0614
      9 C           8.8992    4.2828    9.7131 C.ar    1  UNL1       -0.0564
     10 C           8.6496    4.6806   12.5706 C.ar    1  UNL1       -0.0191
     11 C           9.3937    3.5306   12.8224 C.ar    1  UNL1       -0.0564
     12 C          10.5313    3.5945   13.6059 C.ar    1  UNL1       -0.0614
     13 C          10.9462    4.8063   14.1341 C.ar    1  UNL1       -0.0617
     14 C          10.2193    5.9565   13.8759 C.ar    1  UNL1       -0.0614
     15 C           9.0747    5.8967   13.1010 C.ar    1  UNL1       -0.0564
     16 C           5.9515    5.2608   13.4511 C.3     1  UNL1        0.0296
     17 C           4.9747    6.4267   13.3544 C.3     1  UNL1        0.0296
     18 C           2.7700    6.3706   12.4690 C.3     1  UNL1        0.1140
     19 C           2.1545    6.8775   13.7162 C.ar    1  UNL1       -0.0191
     20 C           1.4840    8.0974   13.7155 C.ar    1  UNL1       -0.0564
     21 C           0.8707    8.5544   14.8678 C.ar    1  UNL1       -0.0614
     22 C           0.9049    7.7921   16.0240 C.ar    1  UNL1       -0.0617
     23 C           1.5544    6.5685   16.0260 C.ar    1  UNL1       -0.0614
     24 C           2.1809    6.1120   14.8807 C.ar    1  UNL1       -0.0564
     25 C           1.8529    6.2198   11.3375 C.ar    1  UNL1       -0.0191
     26 C           0.5170    5.8682   11.5379 C.ar    1  UNL1       -0.0564
     27 C          -0.3535    5.8015   10.4666 C.ar    1  UNL1       -0.0614
     28 C           0.0880    6.1028    9.1875 C.ar    1  UNL1       -0.0617
     29 C           1.4092    6.4664    8.9811 C.ar    1  UNL1       -0.0614
     30 C           2.2901    6.5167   10.0456 C.ar    1  UNL1       -0.0564
     31 H           5.6575    3.3602   10.1192 H       1  UNL1        0.0621
     32 H           5.9775    2.6974    7.7665 H       1  UNL1        0.0618
     33 H           8.1695    2.9911    6.6775 H       1  UNL1        0.0618
     34 H          10.0411    3.9928    7.9340 H       1  UNL1        0.0618
     35 H           9.7221    4.7225   10.2567 H       1  UNL1        0.0621
     36 H           9.0699    2.5880   12.4069 H       1  UNL1        0.0621
     37 H          11.0978    2.6971   13.8005 H       1  UNL1        0.0618
     38 H          11.8367    4.8557   14.7408 H       1  UNL1        0.0618
     39 H          10.5444    6.9047   14.2759 H       1  UNL1        0.0618
     40 H           8.5224    6.8022   12.8884 H       1  UNL1        0.0621
     41 H           6.8372    5.5178   14.0362 H       1  UNL1        0.0454
     42 H           5.4496    4.4116   13.9230 H       1  UNL1        0.0454
     43 H           4.5080    6.6459   14.3170 H       1  UNL1        0.0454
     44 H           5.5140    7.3193   13.0186 H       1  UNL1        0.0454
     45 H           1.4534    8.6865   12.8108 H       1  UNL1        0.0621
     46 H           0.3592    9.5045   14.8611 H       1  UNL1        0.0618
     47 H           0.4200    8.1469   16.9200 H       1  UNL1        0.0618
     48 H           1.5703    5.9649   16.9205 H       1  UNL1        0.0618
     49 H           2.6677    5.1470   14.8765 H       1  UNL1        0.0621
     50 H           0.1683    5.6412   12.5342 H       1  UNL1        0.0621
     51 H          -1.3832    5.5225   10.6290 H       1  UNL1        0.0618
     52 H          -0.5987    6.0645    8.3561 H       1  UNL1        0.0618
     53 H           1.7476    6.7194    7.9871 H       1  UNL1        0.0618
     54 H           3.3080    6.8533    9.9073 H       1  UNL1        0.0621
@<TRIPOS>BOND
     1    33     7    1
     2     7     6   ar
     3     7     8   ar
     4    32     6    1
     5    34     8    1
     6    53    29    1
     7     6     5   ar
     8    52    28    1
     9     8     9   ar
    10    29    28   ar
    11    29    30   ar
    12    28    27   ar
    13     5    31    1
    14     5     4   ar
    15     9    35    1
    16     9     4   ar
    17    54    30    1
    18    30    25   ar
    19     4     3    1
    20    27    51    1
    21    27    26   ar
    22    25    26   ar
    23    25    18    1
    24    26    50    1
    25     3     1    1
    26     3    10    1
    27     1    16    1
    28     2    18    1
    29     2    17    1
    30    36    11    1
    31    18    19    1
    32    10    11   ar
    33    10    15   ar
    34    45    20    1
    35    11    12   ar
    36    40    15    1
    37    44    17    1
    38    15    14   ar
    39    17    16    1
    40    17    43    1
    41    16    42    1
    42    16    41    1
    43    12    37    1
    44    12    13   ar
    45    20    19   ar
    46    20    21   ar
    47    19    24   ar
    48    14    13   ar
    49    14    39    1
    50    13    38    1
    51    46    21    1
    52    21    22   ar
    53    49    24    1
    54    24    23   ar
    55    22    23   ar
    56    22    47    1
    57    23    48    1
