@<TRIPOS>MOLECULE
1,2
 54 57 0 0 0
SMALL
GASTEIGER

@<TRIPOS>ATOM
      1 N           2.3847    1.3114    1.8901 N.3     1  UNL1       -0.2205
      2 N          -0.4050    1.8796    2.2256 N.3     1  UNL1       -0.2205
      3 C           3.6292    1.5840    1.7808 C.3     1  UNL1        0.1140
      4 C           4.5240    1.4006    2.9307 C.ar    1  UNL1       -0.0191
      5 C           5.7720    2.0238    2.9618 C.ar    1  UNL1       -0.0564
      6 C           6.6085    1.8637    4.0517 C.ar    1  UNL1       -0.0614
      7 C           6.2201    1.0715    5.1185 C.ar    1  UNL1       -0.0617
      8 C           4.9856    0.4385    5.0927 C.ar    1  UNL1       -0.0614
      9 C           4.1425    0.6052    4.0131 C.ar    1  UNL1       -0.0564
     10 C           4.2688    2.0894    0.5369 C.ar    1  UNL1       -0.0191
     11 C           4.0209    3.3871    0.0987 C.ar    1  UNL1       -0.0564
     12 C           4.6311    3.8618   -1.0486 C.ar    1  UNL1       -0.0614
     13 C           5.4862    3.0455   -1.7704 C.ar    1  UNL1       -0.0617
     14 C           5.7366    1.7535   -1.3382 C.ar    1  UNL1       -0.0614
     15 C           5.1353    1.2770   -0.1871 C.ar    1  UNL1       -0.0564
     16 C           1.4976    1.4150    0.7577 C.3     1  UNL1        0.0296
     17 C           0.3160    2.3489    1.0711 C.3     1  UNL1        0.0296
     18 C          -1.6575    1.6385    2.2064 C.3     1  UNL1        0.1140
     19 C          -2.2940    1.2070    3.4600 C.ar    1  UNL1       -0.0191
     20 C          -1.8105    1.6667    4.6876 C.ar    1  UNL1       -0.0564
     21 C          -2.3703    1.2095    5.8671 C.ar    1  UNL1       -0.0614
     22 C          -3.4010    0.2832    5.8372 C.ar    1  UNL1       -0.0617
     23 C          -3.8894   -0.1701    4.6216 C.ar    1  UNL1       -0.0614
     24 C          -3.3487    0.2961    3.4376 C.ar    1  UNL1       -0.0564
     25 C          -2.5461    1.7356    1.0243 C.ar    1  UNL1       -0.0191
     26 C          -3.6155    2.6262    1.0399 C.ar    1  UNL1       -0.0564
     27 C          -4.4661    2.7091   -0.0472 C.ar    1  UNL1       -0.0614
     28 C          -4.2675    1.8936   -1.1495 C.ar    1  UNL1       -0.0617
     29 C          -3.2146    0.9942   -1.1631 C.ar    1  UNL1       -0.0614
     30 C          -2.3519    0.9159   -0.0842 C.ar    1  UNL1       -0.0564
     31 H           6.0854    2.6473    2.1369 H       1  UNL1        0.0621
     32 H           7.5673    2.3609    4.0679 H       1  UNL1        0.0618
     33 H           6.8763    0.9473    5.9672 H       1  UNL1        0.0618
     34 H           4.6802   -0.1818    5.9213 H       1  UNL1        0.0618
     35 H           3.1807    0.1018    3.9853 H       1  UNL1        0.0621
     36 H           3.3620    4.0220    0.6733 H       1  UNL1        0.0621
     37 H           4.4390    4.8717   -1.3798 H       1  UNL1        0.0618
     38 H           5.9598    3.4170   -2.6669 H       1  UNL1        0.0618
     39 H           6.4056    1.1163   -1.8973 H       1  UNL1        0.0618
     40 H           5.3307    0.2714    0.1558 H       1  UNL1        0.0621
     41 H           1.1059    0.4121    0.5673 H       1  UNL1        0.0454
     42 H           1.9994    1.7757   -0.1496 H       1  UNL1        0.0454
     43 H           0.7190    3.3324    1.3361 H       1  UNL1        0.0454
     44 H          -0.3162    2.4435    0.1788 H       1  UNL1        0.0454
     45 H          -1.0106    2.4041    4.7076 H       1  UNL1        0.0621
     46 H          -1.9937    1.5705    6.8120 H       1  UNL1        0.0618
     47 H          -3.8248   -0.0850    6.7593 H       1  UNL1        0.0618
     48 H          -4.6920   -0.8919    4.5967 H       1  UNL1        0.0618
     49 H          -3.7235   -0.0673    2.4915 H       1  UNL1        0.0621
     50 H          -3.7694    3.2559    1.9043 H       1  UNL1        0.0621
     51 H          -5.2904    3.4064   -0.0315 H       1  UNL1        0.0618
     52 H          -4.9373    1.9544   -1.9942 H       1  UNL1        0.0618
     53 H          -3.0641    0.3489   -2.0156 H       1  UNL1        0.0618
     54 H          -1.5436    0.1999   -0.0845 H       1  UNL1        0.0621
@<TRIPOS>BOND
     1    38    13    1
     2    53    29    1
     3    52    28    1
     4    39    14    1
     5    13    14   ar
     6    13    12   ar
     7    37    12    1
     8    14    15   ar
     9    29    28   ar
    10    29    30   ar
    11    28    27   ar
    12    12    11   ar
    13    15    40    1
    14    15    10   ar
    15    42    16    1
    16    54    30    1
    17    30    25   ar
    18    27    51    1
    19    27    26   ar
    20    11    10   ar
    21    11    36    1
    22    44    17    1
    23    10     3    1
    24    41    16    1
    25    16    17    1
    26    16     1    1
    27    25    26   ar
    28    25    18    1
    29    26    50    1
    30    17    43    1
    31    17     2    1
    32     3     1    1
    33     3     4    1
    34    31     5    1
    35    18     2    1
    36    18    19    1
    37    49    24    1
    38     4     5   ar
    39     4     9   ar
    40     5     6   ar
    41    24    19   ar
    42    24    23   ar
    43    19    20   ar
    44    35     9    1
    45     9     8   ar
    46     6    32    1
    47     6     7   ar
    48    48    23    1
    49    23    22   ar
    50    20    45    1
    51    20    21   ar
    52     8     7   ar
    53     8    34    1
    54     7    33    1
    55    22    21   ar
    56    22    47    1
    57    21    46    1
