@<TRIPOS>MOLECULE
1,2
 55 56 0 0 0
SMALL
GASTEIGER

@<TRIPOS>ATOM
      1 N           0.9572    0.9190   27.5923 N.pl3   1  UNL1       -0.2118
      2 N           0.7074    0.8837   25.3958 N.3     1  UNL1       -0.1937
      3 N           0.2444   -2.0786   27.3747 N.2     1  UNL1       -0.0427
      4 N          -1.4491   -1.1117   26.1780 N.pl3   1  UNL1       -0.2297
      5 C           0.4929    0.2511   26.5366 C.3     1  UNL1        0.2719
      6 C          -0.2058   -1.0807   26.7201 C.2     1  UNL1        0.3335
      7 C           0.6824    0.5198   28.9015 C.ar    1  UNL1        0.0507
      8 C          -0.6135    0.2428   29.3411 C.ar    1  UNL1       -0.0390
      9 C          -0.8395   -0.1462   30.6473 C.ar    1  UNL1       -0.0600
     10 C           0.2144   -0.2591   31.5392 C.ar    1  UNL1       -0.0616
     11 C           1.5009    0.0320   31.1160 C.ar    1  UNL1       -0.0600
     12 C           1.7367    0.4207   29.8126 C.ar    1  UNL1       -0.0390
     13 C           1.4916   -2.2118   27.9391 C.ar    1  UNL1        0.1762
     14 C           1.5553   -2.7337   29.2343 C.ar    1  UNL1       -0.0109
     15 C           2.7741   -2.9556   29.8386 C.ar    1  UNL1       -0.0577
     16 C           3.9530   -2.6871   29.1604 C.ar    1  UNL1       -0.0615
     17 C           3.8986   -2.1994   27.8663 C.ar    1  UNL1       -0.0577
     18 C           2.6817   -1.9626   27.2569 C.ar    1  UNL1       -0.0109
     19 C           0.6056    0.3695   24.0267 C.3     1  UNL1        0.0312
     20 C           1.0499   -1.0934   23.8876 C.3     1  UNL1       -0.0457
     21 C           1.5650    1.2541   23.2077 C.3     1  UNL1       -0.0457
     22 C          -0.8144    0.5344   23.4549 C.3     1  UNL1       -0.0457
     23 C          -2.4153   -2.1970   26.3346 C.3     1  UNL1        0.0911
     24 C          -3.6717   -1.7859   25.5653 C.3     1  UNL1       -0.0236
     25 C          -2.7497   -2.4031   27.8152 C.3     1  UNL1       -0.0236
     26 C          -1.8343   -3.4813   25.7399 C.3     1  UNL1       -0.0236
     27 H          -1.8392   -0.2193   25.9134 H       1  UNL1        0.2916
     28 H          -1.4401    0.3499   28.6552 H       1  UNL1        0.0637
     29 H          -1.8472   -0.3628   30.9719 H       1  UNL1        0.0618
     30 H           0.0330   -0.5676   32.5576 H       1  UNL1        0.0618
     31 H           2.3281   -0.0526   31.8049 H       1  UNL1        0.0618
     32 H           2.7440    0.6213   29.4771 H       1  UNL1        0.0637
     33 H           0.6337   -2.9356   29.7588 H       1  UNL1        0.0661
     34 H           2.8073   -3.3461   30.8455 H       1  UNL1        0.0619
     35 H           4.9068   -2.8660   29.6342 H       1  UNL1        0.0618
     36 H           4.8130   -2.0006   27.3253 H       1  UNL1        0.0619
     37 H           2.6416   -1.5995   26.2419 H       1  UNL1        0.0661
     38 H           0.9569   -1.3971   22.8474 H       1  UNL1        0.0248
     39 H           0.4441   -1.7598   24.4947 H       1  UNL1        0.0248
     40 H           2.0922   -1.2051   24.1793 H       1  UNL1        0.0248
     41 H           1.5003    1.0009   22.1518 H       1  UNL1        0.0248
     42 H           2.5900    1.1017   23.5410 H       1  UNL1        0.0248
     43 H           1.3029    2.3052   23.3420 H       1  UNL1        0.0248
     44 H          -0.7806    0.4239   22.3738 H       1  UNL1        0.0248
     45 H          -1.4871   -0.2223   23.8477 H       1  UNL1        0.0248
     46 H          -1.1936    1.5287   23.6859 H       1  UNL1        0.0248
     47 H          -4.4295   -2.5593   25.6535 H       1  UNL1        0.0271
     48 H          -4.0825   -0.8590   25.9614 H       1  UNL1        0.0271
     49 H          -3.4491   -1.6449   24.5097 H       1  UNL1        0.0271
     50 H          -3.4405   -3.2335   27.9305 H       1  UNL1        0.0271
     51 H          -3.2087   -1.5088   28.2312 H       1  UNL1        0.0271
     52 H          -1.8387   -2.6200   28.3647 H       1  UNL1        0.0271
     53 H          -2.5545   -4.2899   25.8265 H       1  UNL1        0.0271
     54 H          -0.9291   -3.7537   26.2735 H       1  UNL1        0.0271
     55 H          -1.5970   -3.3384   24.6880 H       1  UNL1        0.0271
@<TRIPOS>BOND
     1    41    21    1
     2    44    22    1
     3    38    20    1
     4    21    43    1
     5    21    42    1
     6    21    19    1
     7    22    46    1
     8    22    45    1
     9    22    19    1
    10    20    19    1
    11    20    40    1
    12    20    39    1
    13    19     2    1
    14    49    24    1
    15    55    26    1
    16     2     5    1
    17    24    47    1
    18    24    48    1
    19    24    23    1
    20    26    53    1
    21    26    54    1
    22    26    23    1
    23    27     4    1
    24     4    23    1
    25     4     6    1
    26    37    18    1
    27    23    25    1
    28     5     6    1
    29     5     1    1
    30     6     3    2
    31    18    17   ar
    32    18    13   ar
    33    36    17    1
    34     3    13    1
    35     1     7    1
    36    25    50    1
    37    25    51    1
    38    25    52    1
    39    17    16   ar
    40    13    14   ar
    41    28     8    1
    42     7     8   ar
    43     7    12   ar
    44    16    35    1
    45    16    15   ar
    46    14    33    1
    47    14    15   ar
    48     8     9   ar
    49    32    12    1
    50    12    11   ar
    51    15    34    1
    52     9    29    1
    53     9    10   ar
    54    11    10   ar
    55    11    31    1
    56    10    30    1
