@<TRIPOS>MOLECULE
1,2
 38 38 0 0 0
SMALL
GASTEIGER

@<TRIPOS>ATOM
      1 N           5.4691    1.7863   -1.5775 N.pl3   1  UNL1        0.0000
      2 N           4.7651    1.0290    0.8110 N.pl3   1  UNL1        0.0000
      3 C           5.4628    0.4180   -1.3684 C.ar    1  UNL1        0.0000
      4 C           5.0793    0.0050   -0.0660 C.ar    1  UNL1        0.0000
      5 C           5.0647   -1.3501    0.2358 C.ar    1  UNL1        0.0000
      6 H           4.7830   -1.6693    1.2267 H       1  UNL1        0.0000
      7 C           5.4208   -2.2953   -0.7159 C.ar    1  UNL1        0.0000
      8 H           5.4078   -3.3439   -0.4567 H       1  UNL1        0.0000
      9 C           5.7932   -1.8936   -1.9831 C.ar    1  UNL1        0.0000
     10 H           6.0749   -2.6242   -2.7273 H       1  UNL1        0.0000
     11 C           5.8122   -0.5442   -2.3065 C.ar    1  UNL1        0.0000
     12 H           6.1124   -0.2355   -3.2953 H       1  UNL1        0.0000
     13 SI          5.4748    2.4663   -3.1771 Si      1  UNL1        0.0000
     14 C           7.1755    2.3216   -4.0678 C.3     1  UNL1        0.0000
     15 H           7.9641    2.7987   -3.4903 H       1  UNL1        0.0000
     16 H           7.1337    2.8184   -5.0323 H       1  UNL1        0.0000
     17 H           7.4786    1.2948   -4.2455 H       1  UNL1        0.0000
     18 C           4.0880    1.7034   -4.2550 C.3     1  UNL1        0.0000
     19 H           3.9956    0.6339   -4.0987 H       1  UNL1        0.0000
     20 H           4.2769    1.8703   -5.3106 H       1  UNL1        0.0000
     21 H           3.1278    2.1517   -4.0170 H       1  UNL1        0.0000
     22 C           5.1363    4.3392   -3.0343 C.3     1  UNL1        0.0000
     23 H           4.3994    4.5577   -2.2666 H       1  UNL1        0.0000
     24 H           4.7561    4.7209   -3.9758 H       1  UNL1        0.0000
     25 H           6.0409    4.8938   -2.8051 H       1  UNL1        0.0000
     26 SI          3.8689    0.7387    2.2717 Si      1  UNL1        0.0000
     27 C           3.3547    2.4253    3.0028 C.3     1  UNL1        0.0000
     28 H           4.1483    2.8622    3.6008 H       1  UNL1        0.0000
     29 H           2.4944    2.3027    3.6518 H       1  UNL1        0.0000
     30 H           3.0846    3.1342    2.2251 H       1  UNL1        0.0000
     31 C           4.9019   -0.1247    3.6480 C.3     1  UNL1        0.0000
     32 H           5.2451   -1.1149    3.3662 H       1  UNL1        0.0000
     33 H           4.3057   -0.2328    4.5489 H       1  UNL1        0.0000
     34 H           5.7798    0.4625    3.9077 H       1  UNL1        0.0000
     35 C           2.2684   -0.2504    1.9164 C.3     1  UNL1        0.0000
     36 H           1.5164    0.3896    1.4641 H       1  UNL1        0.0000
     37 H           1.8493   -0.6557    2.8317 H       1  UNL1        0.0000
     38 H           2.4435   -1.0770    1.2362 H       1  UNL1        0.0000
@<TRIPOS>BOND
     1    20    18    1
     2    16    14    1
     3    18    19    1
     4    18    21    1
     5    18    13    1
     6    17    14    1
     7    14    15    1
     8    14    13    1
     9    24    22    1
    10    12    11    1
    11    13    22    1
    12    13     1    1
    13    22    25    1
    14    22    23    1
    15    10     9    1
    16    11     9   ar
    17    11     3   ar
    18     9     7   ar
    19     1     3    1
    20     3     4   ar
    21     7     8    1
    22     7     5   ar
    23     4     5   ar
    24     4     2    1
    25     5     6    1
    26     2    26    1
    27    38    35    1
    28    36    35    1
    29    35    26    1
    30    35    37    1
    31    30    27    1
    32    26    27    1
    33    26    31    1
    34    27    28    1
    35    27    29    1
    36    32    31    1
    37    31    34    1
    38    31    33    1
