@<TRIPOS>MOLECULE
1,5
 44 45 0 0 0
SMALL
GASTEIGER

@<TRIPOS>ATOM
      1 N          11.8319    7.2606    1.1531 N.pl3   1  UNL1       -0.2387
      2 C          14.5073    5.0912    3.0956 C.3     1  UNL1        0.0847
      3 H          14.2822    4.0380    3.1631 H       1  UNL1        0.0584
      4 C          13.8812    7.1607    2.3365 C.2     1  UNL1        0.0581
      5 N          13.6020    5.8448    2.4715 N.pl3   1  UNL1       -0.2427
      6 C          12.0389   10.0328    0.7271 C.2     1  UNL1       -0.0422
      7 C          15.6741    5.5766    3.6358 C.2     1  UNL1       -0.0563
      8 H          16.3404    4.8900    4.1321 H       1  UNL1        0.0595
      9 C          12.8854    7.9521    1.6297 C.3     1  UNL1        0.1422
     10 C          12.0847   11.5332    0.5118 C.3     1  UNL1       -0.0128
     11 C          10.9304    7.9237    0.4304 C.2     1  UNL1        0.0132
     12 H          10.1237    7.3306    0.0270 H       1  UNL1        0.0798
     13 C          12.9918    9.3334    1.4438 C.2     1  UNL1       -0.0470
     14 H          13.8323    9.8528    1.8686 H       1  UNL1        0.0601
     15 C          17.2686    7.4834    4.1128 C.3     1  UNL1       -0.0129
     16 C          12.1376   11.8187   -0.9945 C.3     1  UNL1       -0.0561
     17 H          11.2717   11.4089   -1.5068 H       1  UNL1        0.0238
     18 H          13.0292   11.3724   -1.4276 H       1  UNL1        0.0238
     19 H          12.1639   12.8921   -1.1699 H       1  UNL1        0.0238
     20 C          15.0610    7.7130    2.8436 C.2     1  UNL1       -0.0372
     21 H          15.2442    8.7628    2.6989 H       1  UNL1        0.0637
     22 C          15.9848    6.9369    3.5198 C.2     1  UNL1       -0.0425
     23 C          10.9888    9.2758    0.1935 C.2     1  UNL1       -0.0429
     24 H          10.2168    9.7338   -0.4026 H       1  UNL1        0.0633
     25 C          10.8167   12.1544    1.1159 C.3     1  UNL1       -0.0561
     26 H           9.9210   11.7653    0.6394 H       1  UNL1        0.0238
     27 H          10.8310   13.2340    0.9840 H       1  UNL1        0.0238
     28 H          10.7589   11.9389    2.1814 H       1  UNL1        0.0238
     29 C          13.3035   12.1862    1.1688 C.3     1  UNL1       -0.0561
     30 H          14.2285   11.7908    0.7549 H       1  UNL1        0.0238
     31 H          13.2989   12.0355    2.2466 H       1  UNL1        0.0238
     32 H          13.2849   13.2577    0.9814 H       1  UNL1        0.0238
     33 C          17.4169    8.9933    3.9074 C.3     1  UNL1       -0.0561
     34 H          16.6006    9.5362    4.3801 H       1  UNL1        0.0238
     35 H          17.4495    9.2445    2.8494 H       1  UNL1        0.0238
     36 H          18.3480    9.3298    4.3585 H       1  UNL1        0.0238
     37 C          17.2745    7.1978    5.6215 C.3     1  UNL1       -0.0561
     38 H          16.4182    7.6707    6.0994 H       1  UNL1        0.0238
     39 H          18.1818    7.5932    6.0726 H       1  UNL1        0.0238
     40 H          17.2321    6.1309    5.8230 H       1  UNL1        0.0238
     41 C          18.4598    6.7831    3.4451 C.3     1  UNL1       -0.0561
     42 H          18.4222    5.7079    3.5982 H       1  UNL1        0.0238
     43 H          19.3936    7.1557    3.8605 H       1  UNL1        0.0238
     44 H          18.4576    6.9774    2.3743 H       1  UNL1        0.0238
@<TRIPOS>BOND
     1    17    16    1
     2    18    16    1
     3    19    16    1
     4    16    10    1
     5    24    23    1
     6    12    11    1
     7    23    11    2
     8    23     6    1
     9    11     1    1
    10    10     6    1
    11    10    25    1
    12    10    29    1
    13    26    25    1
    14     6    13    2
    15    30    29    1
    16    32    29    1
    17    27    25    1
    18    25    28    1
    19     1     9    1
    20    29    31    1
    21    13     9    1
    22    13    14    1
    23     9     4    1
    24     4     5    1
    25     4    20    2
    26    44    41    1
    27     5     2    1
    28    21    20    1
    29    20    22    1
    30    35    33    1
    31     2     3    1
    32     2     7    1
    33    41    42    1
    34    41    43    1
    35    41    15    1
    36    22     7    2
    37    22    15    1
    38     7     8    1
    39    33    15    1
    40    33    36    1
    41    33    34    1
    42    15    37    1
    43    37    40    1
    44    37    39    1
    45    37    38    1
