@<TRIPOS>MOLECULE
1,2
 44 45 0 0 0
SMALL
GASTEIGER

@<TRIPOS>ATOM
      1 N          24.1416    0.5829   17.4916 N.pl3   1  UNL1       -0.2387
      2 N          25.4977    0.4646   19.6988 N.pl3   1  UNL1       -0.2427
      3 C          23.6725    1.0691   21.1148 C.2     1  UNL1       -0.0372
      4 H          22.6302    1.3272   21.2035 H       1  UNL1        0.0637
      5 C          23.4306    0.8255   18.6201 C.3     1  UNL1        0.1422
      6 C          26.2739    0.4458   20.7752 C.3     1  UNL1        0.0847
      7 H          27.3157    0.2130   20.6012 H       1  UNL1        0.0584
      8 C          24.1967    0.7867   19.8555 C.2     1  UNL1        0.0581
      9 C          23.4868    0.6575   16.3264 C.2     1  UNL1        0.0132
     10 H          24.0786    0.4888   15.4407 H       1  UNL1        0.0798
     11 C          23.8813    1.3462   23.6091 C.3     1  UNL1       -0.0129
     12 C          24.4738    1.0326   22.2486 C.2     1  UNL1       -0.0425
     13 C          21.3816    1.1637   17.3738 C.2     1  UNL1       -0.0422
     14 C          22.1469    0.9354   16.2236 C.2     1  UNL1       -0.0429
     15 H          21.7035    0.9796   15.2427 H       1  UNL1        0.0633
     16 C          25.8154    0.7054   22.0496 C.2     1  UNL1       -0.0563
     17 H          26.5170    0.6617   22.8638 H       1  UNL1        0.0595
     18 C          22.0646    1.1022   18.5749 C.2     1  UNL1       -0.0470
     19 H          21.5458    1.2722   19.5017 H       1  UNL1        0.0601
     20 C          19.8998    1.4602   17.2620 C.3     1  UNL1       -0.0128
     21 C          22.7937    0.3091   23.9251 C.3     1  UNL1       -0.0561
     22 H          21.9944    0.3335   23.1887 H       1  UNL1        0.0238
     23 H          22.3616    0.5083   24.9031 H       1  UNL1        0.0238
     24 H          23.2187   -0.6929   23.9342 H       1  UNL1        0.0238
     25 C          19.7164    2.7410   16.4372 C.3     1  UNL1       -0.0561
     26 H          20.2203    3.5735   16.9222 H       1  UNL1        0.0238
     27 H          18.6586    2.9776   16.3466 H       1  UNL1        0.0238
     28 H          20.1305    2.6313   15.4391 H       1  UNL1        0.0238
     29 C          19.2097    0.2828   16.5583 C.3     1  UNL1       -0.0561
     30 H          19.6031    0.1350   15.5566 H       1  UNL1        0.0238
     31 H          18.1415    0.4704   16.4799 H       1  UNL1        0.0238
     32 H          19.3570   -0.6358   17.1229 H       1  UNL1        0.0238
     33 C          23.2682    2.7533   23.5770 C.3     1  UNL1       -0.0561
     34 H          24.0236    3.4875   23.3049 H       1  UNL1        0.0238
     35 H          22.8760    3.0109   24.5583 H       1  UNL1        0.0238
     36 H          22.4543    2.8205   22.8599 H       1  UNL1        0.0238
     37 C          24.9319    1.3039   24.7210 C.3     1  UNL1       -0.0561
     38 H          25.7232    2.0271   24.5379 H       1  UNL1        0.0238
     39 H          25.3702    0.3125   24.8100 H       1  UNL1        0.0238
     40 H          24.4639    1.5497   25.6718 H       1  UNL1        0.0238
     41 C          19.2367    1.6642   18.6266 C.3     1  UNL1       -0.0561
     42 H          19.6745    2.5109   19.1505 H       1  UNL1        0.0238
     43 H          19.3260    0.7732   19.2447 H       1  UNL1        0.0238
     44 H          18.1777    1.8693   18.4873 H       1  UNL1        0.0238
@<TRIPOS>BOND
     1    15    14    1
     2    28    25    1
     3    10     9    1
     4    30    29    1
     5    14     9    2
     6    14    13    1
     7     9     1    1
     8    27    25    1
     9    25    26    1
    10    25    20    1
    11    31    29    1
    12    29    32    1
    13    29    20    1
    14    20    13    1
    15    20    41    1
    16    13    18    2
    17     1     5    1
    18    44    41    1
    19    18     5    1
    20    18    19    1
    21     5     8    1
    22    41    42    1
    23    41    43    1
    24     2     8    1
    25     2     6    1
    26     8     3    2
    27     7     6    1
    28     6    16    1
    29     3     4    1
    30     3    12    1
    31    16    12    2
    32    16    17    1
    33    12    11    1
    34    36    33    1
    35    22    21    1
    36    34    33    1
    37    33    11    1
    38    33    35    1
    39    11    21    1
    40    11    37    1
    41    21    24    1
    42    21    23    1
    43    38    37    1
    44    37    39    1
    45    37    40    1
