@<TRIPOS>MOLECULE
1,2
 44 45 0 0 0
SMALL
GASTEIGER

@<TRIPOS>ATOM
      1 N           3.3040    5.8291   10.2930 N.pl3   1  UNL1       -0.2424
      2 N           3.6534    8.0030   11.7336 N.pl3   1  UNL1       -0.2424
      3 C           2.9827    5.7295   11.6040 C.3     1  UNL1        0.1292
      4 C           3.2937    6.8721   13.8169 C.2     1  UNL1       -0.0504
      5 H           3.0765    5.9432   14.3148 H       1  UNL1        0.0598
      6 C           2.3070    4.6206   12.1048 C.2     1  UNL1       -0.0504
      7 H           2.0310    4.6074   13.1466 H       1  UNL1        0.0598
      8 C           2.3497    3.6611    9.9497 C.2     1  UNL1       -0.0429
      9 H           2.1374    2.8839    9.2368 H       1  UNL1        0.0633
     10 C           3.3178    6.8921   12.4221 C.3     1  UNL1        0.1292
     11 C           3.0132    4.7867    9.5133 C.2     1  UNL1        0.0128
     12 H           3.3128    4.8647    8.4777 H       1  UNL1        0.0798
     13 C           3.5473    8.0175   14.5499 C.2     1  UNL1       -0.0424
     14 C           1.9379    3.5684   11.2787 C.2     1  UNL1       -0.0424
     15 C           3.8675    9.1178   12.4355 C.2     1  UNL1        0.0128
     16 H           4.0836   10.0085   11.8618 H       1  UNL1        0.0798
     17 C           3.8181    9.1726   13.8086 C.2     1  UNL1       -0.0429
     18 H           3.9972   10.1173   14.2958 H       1  UNL1        0.0633
     19 C           1.1082    2.4223   11.8221 C.3     1  UNL1       -0.0129
     20 C           3.5407    8.0652   16.0651 C.3     1  UNL1       -0.0129
     21 C           3.2110    6.7088   16.6934 C.3     1  UNL1       -0.0561
     22 H           3.9457    5.9562   16.4145 H       1  UNL1        0.0238
     23 H           2.2208    6.3717   16.3953 H       1  UNL1        0.0238
     24 H           3.2210    6.8000   17.7774 H       1  UNL1        0.0238
     25 C           0.7562    1.4021   10.7375 C.3     1  UNL1       -0.0561
     26 H           1.6510    0.9419   10.3241 H       1  UNL1        0.0238
     27 H           0.1919    1.8729    9.9357 H       1  UNL1        0.0238
     28 H           0.1419    0.6135   11.1667 H       1  UNL1        0.0238
     29 C          -0.2006    2.9976   12.3820 C.3     1  UNL1       -0.0561
     30 H          -0.0181    3.6655   13.2199 H       1  UNL1        0.0238
     31 H          -0.8459    2.1920   12.7251 H       1  UNL1        0.0238
     32 H          -0.7211    3.5558   11.6066 H       1  UNL1        0.0238
     33 C           1.8903    1.7097   12.9343 C.3     1  UNL1       -0.0561
     34 H           2.8256    1.3128   12.5442 H       1  UNL1        0.0238
     35 H           1.3045    0.8835   13.3308 H       1  UNL1        0.0238
     36 H           2.1215    2.3858   13.7535 H       1  UNL1        0.0238
     37 C           4.9306    8.5012   16.5508 C.3     1  UNL1       -0.0561
     38 H           5.6878    7.7944   16.2162 H       1  UNL1        0.0238
     39 H           4.9510    8.5382   17.6376 H       1  UNL1        0.0238
     40 H           5.1906    9.4858   16.1718 H       1  UNL1        0.0238
     41 C           2.4855    9.0803   16.5240 C.3     1  UNL1       -0.0561
     42 H           2.7053   10.0773   16.1530 H       1  UNL1        0.0238
     43 H           2.4532    9.1190   17.6107 H       1  UNL1        0.0238
     44 H           1.5039    8.7916   16.1562 H       1  UNL1        0.0238
@<TRIPOS>BOND
     1    12    11    1
     2     9     8    1
     3    11     8    2
     4    11     1    1
     5    27    25    1
     6     8    14    1
     7     1     3    1
     8    26    25    1
     9    25    28    1
    10    25    19    1
    11    14    19    1
    12    14     6    2
    13     3     6    1
    14     3    10    1
    15    32    29    1
    16     2    10    1
    17     2    15    1
    18    19    29    1
    19    19    33    1
    20    16    15    1
    21     6     7    1
    22    29    31    1
    23    29    30    1
    24    10     4    1
    25    15    17    2
    26    34    33    1
    27    33    35    1
    28    33    36    1
    29    17    18    1
    30    17    13    1
    31     4     5    1
    32     4    13    2
    33    13    20    1
    34    20    41    1
    35    20    37    1
    36    20    21    1
    37    42    41    1
    38    44    41    1
    39    40    37    1
    40    38    37    1
    41    23    21    1
    42    22    21    1
    43    41    43    1
    44    37    39    1
    45    21    24    1
