@<TRIPOS>MOLECULE
1,2
 49 49 0 0 0
SMALL
GASTEIGER

@<TRIPOS>ATOM
      1 N           4.7926    3.9835    5.6560 N.3     1  UNL1        0.0000
      2 N           4.7164    2.1902    3.1364 N.3     1  UNL1        0.0000
      3 N           4.8578    6.2653    2.1345 N.ar    1  UNL1        0.0000
      4 SI          4.1017    4.3162    7.2010 Si      1  UNL1        0.0000
      5 SI          3.7710    0.8050    2.7206 Si      1  UNL1        0.0000
      6 C           4.8813    7.3311    1.3575 C.ar    1  UNL1        0.0000
      7 C           3.7395    7.9657    0.8971 C.ar    1  UNL1        0.0000
      8 C           2.5151    7.4417    1.2792 C.ar    1  UNL1        0.0000
      9 C           2.4829    6.3232    2.0944 C.ar    1  UNL1        0.0000
     10 C           3.6845    5.7557    2.5099 C.ar    1  UNL1        0.0000
     11 C           3.7885    4.5335    3.3919 C.3     1  UNL1        0.0000
     12 C           4.6199    4.9775    4.6305 C.3     1  UNL1        0.0000
     13 C           4.5259    3.4731    2.5252 C.3     1  UNL1        0.0000
     14 C           2.4412    3.9815    3.8420 C.3     1  UNL1        0.0000
     15 C           4.4778    2.8063    8.2969 C.3     1  UNL1        0.0000
     16 C           4.8068    5.9219    7.9876 C.3     1  UNL1        0.0000
     17 C           2.1967    4.5793    7.2127 C.3     1  UNL1        0.0000
     18 C           2.5948    0.3711    4.1797 C.3     1  UNL1        0.0000
     19 C           5.0046   -0.6345    2.4714 C.3     1  UNL1        0.0000
     20 C           2.7451    1.0377    1.1226 C.3     1  UNL1        0.0000
     21 H           5.8683    7.6887    1.0910 H       1  UNL1        0.0000
     22 H           3.8058    8.8350    0.2621 H       1  UNL1        0.0000
     23 H           1.5938    7.8984    0.9459 H       1  UNL1        0.0000
     24 H           1.5367    5.9051    2.3962 H       1  UNL1        0.0000
     25 H           5.5904    5.3536    4.2618 H       1  UNL1        0.0000
     26 H           4.1002    5.8600    5.0355 H       1  UNL1        0.0000
     27 H           5.4886    3.9185    2.2332 H       1  UNL1        0.0000
     28 H           3.9417    3.3724    1.5988 H       1  UNL1        0.0000
     29 H           2.6117    3.1546    4.5317 H       1  UNL1        0.0000
     30 H           1.8608    4.7429    4.3587 H       1  UNL1        0.0000
     31 H           1.8711    3.6106    2.9912 H       1  UNL1        0.0000
     32 H           3.6503    2.5894    8.9626 H       1  UNL1        0.0000
     33 H           5.3558    2.9712    8.9115 H       1  UNL1        0.0000
     34 H           4.6548    1.9395    7.6647 H       1  UNL1        0.0000
     35 H           4.2061    6.2246    8.8392 H       1  UNL1        0.0000
     36 H           5.8274    5.7976    8.3353 H       1  UNL1        0.0000
     37 H           4.7993    6.7449    7.2775 H       1  UNL1        0.0000
     38 H           1.8558    4.7463    8.2302 H       1  UNL1        0.0000
     39 H           1.9075    5.4510    6.6325 H       1  UNL1        0.0000
     40 H           1.6537    3.7231    6.8242 H       1  UNL1        0.0000
     41 H           2.4080   -0.6968    4.2304 H       1  UNL1        0.0000
     42 H           3.0573    0.6763    5.1192 H       1  UNL1        0.0000
     43 H           1.6288    0.8617    4.0985 H       1  UNL1        0.0000
     44 H           4.5016   -1.5955    2.4576 H       1  UNL1        0.0000
     45 H           5.7137   -0.6260    3.2955 H       1  UNL1        0.0000
     46 H           5.5659   -0.5421    1.5468 H       1  UNL1        0.0000
     47 H           2.2409    0.1138    0.8620 H       1  UNL1        0.0000
     48 H           3.3754    1.3137    0.2830 H       1  UNL1        0.0000
     49 H           1.9837    1.8036    1.2326 H       1  UNL1        0.0000
@<TRIPOS>BOND
     1    22     7    1
     2    48    20    1
     3    47    20    1
     4     7     8   ar
     5     7     6   ar
     6    23     8    1
     7    21     6    1
     8    20    49    1
     9    20     5    1
    10     8     9   ar
    11     6     3   ar
    12    46    19    1
    13    28    13    1
    14     9    24    1
    15     9    10   ar
    16     3    10   ar
    17    27    13    1
    18    44    19    1
    19    19     5    1
    20    19    45    1
    21    10    11    1
    22    13     2    1
    23    13    11    1
    24     5     2    1
    25     5    18    1
    26    31    14    1
    27    11    14    1
    28    11    12    1
    29    14    30    1
    30    14    29    1
    31    43    18    1
    32    18    41    1
    33    18    42    1
    34    25    12    1
    35    12    26    1
    36    12     1    1
    37     1     4    1
    38    39    17    1
    39    40    17    1
    40     4    17    1
    41     4    16    1
    42     4    15    1
    43    17    38    1
    44    37    16    1
    45    34    15    1
    46    16    36    1
    47    16    35    1
    48    15    33    1
    49    15    32    1
