@<TRIPOS>MOLECULE
1,2
 24 23 0 0 0
SMALL
GASTEIGER

@<TRIPOS>ATOM
      1 N           1.8272    1.2595    6.7058 N.3     1  UNL1       -0.3071
      2 N          -0.5126   -0.4100    7.6834 N.3     1  UNL1       -0.3071
      3 C           2.0339    2.2189    5.6247 C.3     1  UNL1       -0.0130
      4 H           2.8167    1.8796    4.9329 H       1  UNL1        0.0391
      5 H           2.3183    3.1780    6.0521 H       1  UNL1        0.0391
      6 H           1.1015    2.3572    5.0800 H       1  UNL1        0.0391
      7 C           3.0437    1.1598    7.5035 C.3     1  UNL1       -0.0130
      8 H           3.8747    0.7531    6.9107 H       1  UNL1        0.0391
      9 H           2.8728    0.5271    8.3710 H       1  UNL1        0.0391
     10 H           3.3091    2.1498    7.8675 H       1  UNL1        0.0391
     11 C           1.4343   -0.0440    6.1604 C.3     1  UNL1        0.0111
     12 H           0.7389    0.1338    5.3384 H       1  UNL1        0.0439
     13 H           2.3158   -0.5681    5.7562 H       1  UNL1        0.0439
     14 C          -0.8802   -1.0457    8.9448 C.3     1  UNL1       -0.0130
     15 H          -0.9678   -2.1353    8.8353 H       1  UNL1        0.0391
     16 H          -1.8314   -0.6406    9.2833 H       1  UNL1        0.0391
     17 H          -0.1279   -0.8149    9.6970 H       1  UNL1        0.0391
     18 C          -1.5814   -0.6004    6.7108 C.3     1  UNL1       -0.0130
     19 H          -1.6909   -1.6607    6.4419 H       1  UNL1        0.0391
     20 H          -1.3806   -0.0183    5.8144 H       1  UNL1        0.0391
     21 H          -2.5143   -0.2398    7.1381 H       1  UNL1        0.0391
     22 C           0.7613   -0.9474    7.1969 C.3     1  UNL1        0.0111
     23 H           1.4247   -1.0590    8.0560 H       1  UNL1        0.0439
     24 H           0.6092   -1.9438    6.7494 H       1  UNL1        0.0439
@<TRIPOS>BOND
     1     4     3    1
     2     6     3    1
     3    12    11    1
     4     3     5    1
     5     3     1    1
     6    13    11    1
     7    20    18    1
     8    11     1    1
     9    11    22    1
    10    19    18    1
    11     1     7    1
    12    18    21    1
    13    18     2    1
    14    24    22    1
    15     8     7    1
    16    22     2    1
    17    22    23    1
    18     7    10    1
    19     7     9    1
    20     2    14    1
    21    15    14    1
    22    14    16    1
    23    14    17    1
