@<TRIPOS>MOLECULE
1,2
 43 43 0 0 0
SMALL
GASTEIGER

@<TRIPOS>ATOM
      1 N          -0.0639    0.8666    4.3000 N.3     1  UNL1        0.0000
      2 N          -0.4172    2.4582    2.8125 N.3     1  UNL1        0.0000
      3 SI          0.0895   -0.7356    4.9632 Si      1  UNL1        0.0000
      4 SI         -0.8320    3.1834    1.2914 Si      1  UNL1        0.0000
      5 C          -0.7965    1.3021    3.3018 C.3     1  UNL1        0.0000
      6 C          -1.9120    0.5252    2.7235 C.ar    1  UNL1        0.0000
      7 C          -1.6343   -0.3386    1.6688 C.ar    1  UNL1        0.0000
      8 C          -2.6520   -1.0733    1.0926 C.ar    1  UNL1        0.0000
      9 C          -3.9610   -0.9644    1.5532 C.ar    1  UNL1        0.0000
     10 C          -4.2247   -0.1026    2.6088 C.ar    1  UNL1        0.0000
     11 C          -3.2117    0.6383    3.1929 C.ar    1  UNL1        0.0000
     12 C          -5.0515   -1.7727    0.9185 C.3     1  UNL1        0.0000
     13 C          -1.5122   -1.7767    4.8813 C.3     1  UNL1        0.0000
     14 C           1.5004   -1.5619    3.9636 C.3     1  UNL1        0.0000
     15 C           0.5528   -0.4975    6.8018 C.3     1  UNL1        0.0000
     16 C           0.3082    2.3495    0.0001 C.3     1  UNL1        0.0000
     17 C          -0.3894    5.0251    1.5385 C.3     1  UNL1        0.0000
     18 C          -2.6787    3.0291    0.8244 C.3     1  UNL1        0.0000
     19 H          -0.6155   -0.4243    1.3185 H       1  UNL1        0.0000
     20 H          -2.4333   -1.7438    0.2736 H       1  UNL1        0.0000
     21 H          -5.2352   -0.0086    2.9800 H       1  UNL1        0.0000
     22 H          -3.4286    1.3051    4.0141 H       1  UNL1        0.0000
     23 H          -6.0213   -1.5166    1.3369 H       1  UNL1        0.0000
     24 H          -4.8750   -2.8358    1.0792 H       1  UNL1        0.0000
     25 H          -5.0775   -1.5999   -0.1563 H       1  UNL1        0.0000
     26 H          -1.3770   -2.6790    5.4670 H       1  UNL1        0.0000
     27 H          -2.3626   -1.2428    5.2920 H       1  UNL1        0.0000
     28 H          -1.7678   -2.0734    3.8703 H       1  UNL1        0.0000
     29 H           2.1580   -2.1486    4.5971 H       1  UNL1        0.0000
     30 H           2.1023   -0.7795    3.4895 H       1  UNL1        0.0000
     31 H           1.1256   -2.2166    3.1813 H       1  UNL1        0.0000
     32 H           0.6663   -1.4587    7.2928 H       1  UNL1        0.0000
     33 H          -0.2024    0.0636    7.3461 H       1  UNL1        0.0000
     34 H           1.4957    0.0350    6.8959 H       1  UNL1        0.0000
     35 H          -0.1923    1.5459   -0.5328 H       1  UNL1        0.0000
     36 H           0.6858    3.0473   -0.7402 H       1  UNL1        0.0000
     37 H           1.1617    1.9245    0.5336 H       1  UNL1        0.0000
     38 H          -0.4169    5.5750    0.6033 H       1  UNL1        0.0000
     39 H           0.6142    5.1057    1.9518 H       1  UNL1        0.0000
     40 H          -1.0756    5.5111    2.2273 H       1  UNL1        0.0000
     41 H          -2.9000    3.7008    0.0023 H       1  UNL1        0.0000
     42 H          -3.3292    3.2946    1.6514 H       1  UNL1        0.0000
     43 H          -2.9400    2.0246    0.5102 H       1  UNL1        0.0000
@<TRIPOS>BOND
     1    36    16    1
     2    35    16    1
     3    25    12    1
     4    16    37    1
     5    16     4    1
     6    41    18    1
     7    20     8    1
     8    43    18    1
     9    38    17    1
    10    18     4    1
    11    18    42    1
    12    12    24    1
    13    12    23    1
    14    12     9    1
    15     8     9   ar
    16     8     7   ar
    17     4    17    1
    18     4     2    1
    19    19     7    1
    20    17    39    1
    21    17    40    1
    22     9    10   ar
    23     7     6   ar
    24    10    21    1
    25    10    11   ar
    26     6    11   ar
    27     6     5    1
    28     2     5    1
    29    31    14    1
    30    11    22    1
    31     5     1    1
    32    30    14    1
    33    28    13    1
    34    14    29    1
    35    14     3    1
    36     1     3    1
    37    13     3    1
    38    13    27    1
    39    13    26    1
    40     3    15    1
    41    15    34    1
    42    15    32    1
    43    15    33    1
