@<TRIPOS>MOLECULE
1,2
 43 43 0 0 0
SMALL
GASTEIGER

@<TRIPOS>ATOM
      1 N           2.1767    4.2005    3.6404 N.3     1  UNL1        0.0000
      2 N           0.6398    3.8018    5.1931 N.3     1  UNL1        0.0000
      3 SI          3.6391    4.8158    2.9095 Si      1  UNL1        0.0000
      4 SI         -0.2630    3.9167    6.6647 Si      1  UNL1        0.0000
      5 C           1.5837    4.5852    4.7614 C.3     1  UNL1        0.0000
      6 C           2.0191    5.7974    5.4875 C.ar    1  UNL1        0.0000
      7 C           2.9152    5.6660    6.5427 C.ar    1  UNL1        0.0000
      8 C           3.3207    6.7848    7.2443 C.ar    1  UNL1        0.0000
      9 C           2.8401    8.0487    6.9159 C.ar    1  UNL1        0.0000
     10 C           1.9433    8.1661    5.8625 C.ar    1  UNL1        0.0000
     11 C           1.5354    7.0528    5.1491 C.ar    1  UNL1        0.0000
     12 C           3.2869    9.2492    7.6937 C.3     1  UNL1        0.0000
     13 C           5.1247    4.3432    4.0218 C.3     1  UNL1        0.0000
     14 C           3.6909    3.8894    1.2449 C.3     1  UNL1        0.0000
     15 C           3.5996    6.7051    2.6186 C.3     1  UNL1        0.0000
     16 C          -1.8285    2.8682    6.3513 C.3     1  UNL1        0.0000
     17 C           0.7574    3.2165    8.1251 C.3     1  UNL1        0.0000
     18 C          -0.8282    5.6939    7.0891 C.3     1  UNL1        0.0000
     19 H           3.2873    4.6847    6.8025 H       1  UNL1        0.0000
     20 H           4.0195    6.6798    8.0621 H       1  UNL1        0.0000
     21 H           1.5586    9.1400    5.5950 H       1  UNL1        0.0000
     22 H           0.8371    7.1545    4.3314 H       1  UNL1        0.0000
     23 H           2.8466   10.1592    7.2944 H       1  UNL1        0.0000
     24 H           2.9963    9.1524    8.7392 H       1  UNL1        0.0000
     25 H           4.3715    9.3419    7.6587 H       1  UNL1        0.0000
     26 H           6.0630    4.4282    3.4830 H       1  UNL1        0.0000
     27 H           5.1910    4.9787    4.9015 H       1  UNL1        0.0000
     28 H           5.0274    3.3119    4.3607 H       1  UNL1        0.0000
     29 H           4.6675    3.9524    0.7772 H       1  UNL1        0.0000
     30 H           3.4618    2.8370    1.4226 H       1  UNL1        0.0000
     31 H           2.9591    4.2755    0.5405 H       1  UNL1        0.0000
     32 H           4.4087    6.9783    1.9508 H       1  UNL1        0.0000
     33 H           3.7321    7.2612    3.5403 H       1  UNL1        0.0000
     34 H           2.6719    7.0340    2.1614 H       1  UNL1        0.0000
     35 H          -2.4363    2.8024    7.2484 H       1  UNL1        0.0000
     36 H          -1.5676    1.8585    6.0462 H       1  UNL1        0.0000
     37 H          -2.4423    3.3036    5.5665 H       1  UNL1        0.0000
     38 H           0.1158    2.7511    8.8670 H       1  UNL1        0.0000
     39 H           1.3175    4.0027    8.6243 H       1  UNL1        0.0000
     40 H           1.4708    2.4696    7.7846 H       1  UNL1        0.0000
     41 H          -1.5991    5.6577    7.8516 H       1  UNL1        0.0000
     42 H          -0.0131    6.2981    7.4736 H       1  UNL1        0.0000
     43 H          -1.2418    6.2089    6.2275 H       1  UNL1        0.0000
@<TRIPOS>BOND
     1    31    14    1
     2    29    14    1
     3    14    30    1
     4    14     3    1
     5    32    15    1
     6    34    15    1
     7    15     3    1
     8    15    33    1
     9     3     1    1
    10     3    13    1
    11    26    13    1
    12     1     5    1
    13    13    28    1
    14    13    27    1
    15    22    11    1
    16     5     2    1
    17     5     6    1
    18    11     6   ar
    19    11    10   ar
    20     2     4    1
    21     6     7   ar
    22    37    16    1
    23    21    10    1
    24    10     9   ar
    25    36    16    1
    26    43    18    1
    27    16     4    1
    28    16    35    1
    29     7    19    1
    30     7     8   ar
    31     4    18    1
    32     4    17    1
    33     9     8   ar
    34     9    12    1
    35    18    42    1
    36    18    41    1
    37     8    20    1
    38    23    12    1
    39    25    12    1
    40    12    24    1
    41    40    17    1
    42    17    39    1
    43    17    38    1
