@<TRIPOS>MOLECULE
1,2
 40 40 0 0 0
SMALL
GASTEIGER

@<TRIPOS>ATOM
      1 N           6.7003   12.6893    2.5009 N.3     1  UNL1        0.0000
      2 N           8.8109   13.2366    2.2339 N.3     1  UNL1        0.0000
      3 SI          4.9743   12.5537    2.4362 Si      1  UNL1        0.0000
      4 SI         10.3205   13.9483    1.7686 Si      1  UNL1        0.0000
      5 C           7.5587   13.5374    1.9874 C.3     1  UNL1        0.0000
      6 C           7.1484   14.7588    1.2566 C.ar    1  UNL1        0.0000
      7 C           6.9064   15.9121    1.9947 C.ar    1  UNL1        0.0000
      8 C           6.5219   17.0770    1.3564 C.ar    1  UNL1        0.0000
      9 C           6.3749   17.0990   -0.0209 C.ar    1  UNL1        0.0000
     10 C           6.6147   15.9529   -0.7585 C.ar    1  UNL1        0.0000
     11 C           7.0012   14.7851   -0.1232 C.ar    1  UNL1        0.0000
     12 C           4.4277   12.4127    4.2583 C.3     1  UNL1        0.0000
     13 C           4.0597   13.9909    1.5749 C.3     1  UNL1        0.0000
     14 C           4.6240   10.9268    1.4891 C.3     1  UNL1        0.0000
     15 C          11.1692   12.6531    0.6421 C.3     1  UNL1        0.0000
     16 C          11.2839   14.1672    3.4002 C.3     1  UNL1        0.0000
     17 C          10.2025   15.6140    0.8438 C.3     1  UNL1        0.0000
     18 H           7.0249   15.8791    3.0681 H       1  UNL1        0.0000
     19 H           6.3356   17.9707    1.9337 H       1  UNL1        0.0000
     20 H           6.0740   18.0086   -0.5189 H       1  UNL1        0.0000
     21 H           6.5009   15.9677   -1.8327 H       1  UNL1        0.0000
     22 H           7.1881   13.8937   -0.7062 H       1  UNL1        0.0000
     23 H           3.4174   12.0278    4.3481 H       1  UNL1        0.0000
     24 H           4.4632   13.3720    4.7675 H       1  UNL1        0.0000
     25 H           5.0981   11.7311    4.7794 H       1  UNL1        0.0000
     26 H           2.9909   13.8111    1.6131 H       1  UNL1        0.0000
     27 H           4.2527   14.9429    2.0570 H       1  UNL1        0.0000
     28 H           4.3399   14.0899    0.5316 H       1  UNL1        0.0000
     29 H           3.5679   10.6791    1.5114 H       1  UNL1        0.0000
     30 H           4.9256   10.9820    0.4454 H       1  UNL1        0.0000
     31 H           5.1631   10.1028    1.9514 H       1  UNL1        0.0000
     32 H          12.1860   12.9466    0.4029 H       1  UNL1        0.0000
     33 H          10.6395   12.5105   -0.2973 H       1  UNL1        0.0000
     34 H          11.2169   11.6922    1.1500 H       1  UNL1        0.0000
     35 H          12.3436   14.3201    3.2250 H       1  UNL1        0.0000
     36 H          10.9181   15.0130    3.9759 H       1  UNL1        0.0000
     37 H          11.1663   13.2716    4.0079 H       1  UNL1        0.0000
     38 H          11.2012   15.9943    0.6590 H       1  UNL1        0.0000
     39 H           9.6649   16.3605    1.4183 H       1  UNL1        0.0000
     40 H           9.7043   15.5177   -0.1149 H       1  UNL1        0.0000
@<TRIPOS>BOND
     1    21    10    1
     2    10    11   ar
     3    10     9   ar
     4    22    11    1
     5    20     9    1
     6    33    15    1
     7    11     6   ar
     8    40    17    1
     9     9     8   ar
    10    32    15    1
    11    30    14    1
    12    28    13    1
    13    15    34    1
    14    15     4    1
    15    38    17    1
    16    17    39    1
    17    17     4    1
    18     6     5    1
    19     6     7   ar
    20     8    19    1
    21     8     7   ar
    22    14    29    1
    23    14    31    1
    24    14     3    1
    25    13    26    1
    26    13    27    1
    27    13     3    1
    28     4     2    1
    29     4    16    1
    30     5     2    1
    31     5     1    1
    32     7    18    1
    33     3     1    1
    34     3    12    1
    35    35    16    1
    36    16    36    1
    37    16    37    1
    38    12    23    1
    39    12    24    1
    40    12    25    1
