@<TRIPOS>MOLECULE
2,4
 79 84 0 0 0
SMALL
GASTEIGER

@<TRIPOS>ATOM
      1 SI          3.1572    4.9139    0.5361 Si      1  UNL1        0.0000
      2 N           2.8659    3.2527    0.9742 N.3     1  UNL1        0.0000
      3 N           2.5482    1.0763    0.2291 N.pl3   1  UNL1        0.0000
      4 N           3.6173    5.3194    2.1653 N.3     1  UNL1        0.0000
      5 N           4.1007    7.0084    3.6892 N.pl3   1  UNL1        0.0000
      6 B           3.7897    0.4544    0.9749 B       1  UNL1        0.0000
      7 B           2.9146    6.7044    4.6847 B       1  UNL1        0.0000
      8 C           2.1664    2.3730    0.2487 C.3     1  UNL1        0.0000
      9 C           1.0463    2.7419   -0.5331 C.2     1  UNL1        0.0000
     10 H           0.7347    3.7702   -0.5124 H       1  UNL1        0.0000
     11 C           0.3618    1.8059   -1.2662 C.2     1  UNL1        0.0000
     12 H          -0.5025    2.0981   -1.8446 H       1  UNL1        0.0000
     13 C           0.7873    0.4809   -1.2680 C.2     1  UNL1        0.0000
     14 H           0.2765   -0.2700   -1.8463 H       1  UNL1        0.0000
     15 C           1.8963    0.1545   -0.5132 C.2     1  UNL1        0.0000
     16 C           2.5590   -1.1316   -0.4267 C.ar    1  UNL1        0.0000
     17 C           2.2093   -2.3140   -1.0661 C.ar    1  UNL1        0.0000
     18 H           1.3280   -2.3716   -1.6884 H       1  UNL1        0.0000
     19 C           3.0166   -3.4229   -0.8954 C.ar    1  UNL1        0.0000
     20 H           2.7650   -4.3541   -1.3824 H       1  UNL1        0.0000
     21 C           4.1581   -3.3407   -0.1093 C.ar    1  UNL1        0.0000
     22 H           4.7889   -4.2118    0.0018 H       1  UNL1        0.0000
     23 C           4.4951   -2.1575    0.5286 C.ar    1  UNL1        0.0000
     24 H           5.3934   -2.1117    1.1269 H       1  UNL1        0.0000
     25 C           3.6951   -1.0335    0.3914 C.ar    1  UNL1        0.0000
     26 C           3.4823    0.5453    2.5922 C.3     1  UNL1        0.0000
     27 H           3.9111    1.5080    2.9599 H       1  UNL1        0.0000
     28 H           2.3962    0.5405    2.7736 H       1  UNL1        0.0000
     29 C           4.1165   -0.5864    3.4035 C.3     1  UNL1        0.0000
     30 H           3.8956   -0.5022    4.4662 H       1  UNL1        0.0000
     31 H           5.1968   -0.5780    3.2746 H       1  UNL1        0.0000
     32 H           3.7403   -1.5465    3.0578 H       1  UNL1        0.0000
     33 C           5.1680    1.2510    0.5956 C.3     1  UNL1        0.0000
     34 H           5.1336    2.2850    0.9764 H       1  UNL1        0.0000
     35 H           6.0123    0.7620    1.0892 H       1  UNL1        0.0000
     36 C           5.4549    1.2943   -0.9058 C.3     1  UNL1        0.0000
     37 H           6.3853    1.8195   -1.1198 H       1  UNL1        0.0000
     38 H           4.6485    1.8012   -1.4332 H       1  UNL1        0.0000
     39 H           5.5345    0.2843   -1.3036 H       1  UNL1        0.0000
     40 C           4.3775    6.3580    2.5370 C.3     1  UNL1        0.0000
     41 C           5.4611    6.8255    1.7579 C.2     1  UNL1        0.0000
     42 H           5.6875    6.3035    0.8458 H       1  UNL1        0.0000
     43 C           6.2205    7.8896    2.1758 C.2     1  UNL1        0.0000
     44 H           7.0580    8.2239    1.5811 H       1  UNL1        0.0000
     45 C           5.9040    8.5396    3.3640 C.2     1  UNL1        0.0000
     46 H           6.4738    9.3860    3.7078 H       1  UNL1        0.0000
     47 C           4.8248    8.0764    4.0910 C.2     1  UNL1        0.0000
     48 C           4.2674    8.6482    5.3004 C.ar    1  UNL1        0.0000
     49 C           4.7120    9.7643    5.9978 C.ar    1  UNL1        0.0000
     50 H           5.5988   10.2983    5.6886 H       1  UNL1        0.0000
     51 C           3.9925   10.1862    7.0999 C.ar    1  UNL1        0.0000
     52 H           4.3187   11.0517    7.6587 H       1  UNL1        0.0000
     53 C           2.8428    9.5091    7.4840 C.ar    1  UNL1        0.0000
     54 H           2.2801    9.8619    8.3372 H       1  UNL1        0.0000
     55 C           2.4112    8.3930    6.7851 C.ar    1  UNL1        0.0000
     56 H           1.5067    7.8883    7.0922 H       1  UNL1        0.0000
     57 C           3.1228    7.9341    5.6871 C.ar    1  UNL1        0.0000
     58 C           3.2372    5.2508    5.3856 C.3     1  UNL1        0.0000
     59 H           2.8994    4.4566    4.6754 H       1  UNL1        0.0000
     60 H           4.3186    5.1397    5.5488 H       1  UNL1        0.0000
     61 C           2.5148    5.0379    6.7158 C.3     1  UNL1        0.0000
     62 H           2.7563    4.0749    7.1625 H       1  UNL1        0.0000
     63 H           1.4379    5.0913    6.5697 H       1  UNL1        0.0000
     64 H           2.8041    5.8147    7.4197 H       1  UNL1        0.0000
     65 C           1.4780    6.6837    3.9057 C.3     1  UNL1        0.0000
     66 H           1.4371    5.8396    3.2007 H       1  UNL1        0.0000
     67 H           0.6758    6.5270    4.6312 H       1  UNL1        0.0000
     68 C           1.1809    7.9759    3.1446 C.3     1  UNL1        0.0000
     69 H           0.2183    7.9283    2.6363 H       1  UNL1        0.0000
     70 H           1.9510    8.1648    2.3985 H       1  UNL1        0.0000
     71 H           1.1635    8.8211    3.8302 H       1  UNL1        0.0000
     72 C           4.4094    4.9234   -0.9216 C.3     1  UNL1        0.0000
     73 H           3.9909    4.3949   -1.7733 H       1  UNL1        0.0000
     74 H           5.3423    4.4302   -0.6635 H       1  UNL1        0.0000
     75 H           4.6353    5.9337   -1.2478 H       1  UNL1        0.0000
     76 C           1.7297    6.0904    0.0152 C.3     1  UNL1        0.0000
     77 H           1.4374    5.9312   -1.0181 H       1  UNL1        0.0000
     78 H           2.0440    7.1260    0.1049 H       1  UNL1        0.0000
     79 H           0.8512    5.9645    0.6421 H       1  UNL1        0.0000
@<TRIPOS>BOND
     1    14    13    1
     2    12    11    1
     3    73    72    1
     4    18    17    1
     5    38    36    1
     6    20    19    1
     7    39    36    1
     8    13    11    1
     9    13    15    2
    10    11     9    2
    11    75    72    1
    12    37    36    1
    13    17    19   ar
    14    17    16   ar
    15    77    76    1
    16    72    74    1
    17    72     1    1
    18    36    33    1
    19    19    21   ar
    20     9    10    1
    21     9     8    1
    22    15    16    1
    23    15     3    1
    24    16    25   ar
    25    21    22    1
    26    21    23   ar
    27    76    78    1
    28    76     1    1
    29    76    79    1
    30     3     8    1
    31     3     6    1
    32     8     2    1
    33    25    23   ar
    34    25     6    1
    35    23    24    1
    36     1     2    1
    37     1     4    1
    38    33     6    1
    39    33    34    1
    40    33    35    1
    41    42    41    1
    42     6    26    1
    43    44    43    1
    44    41    43    2
    45    41    40    1
    46     4    40    1
    47    43    45    1
    48    70    68    1
    49    40     5    1
    50    26    28    1
    51    26    27    1
    52    26    29    1
    53    69    68    1
    54    32    29    1
    55    68    71    1
    56    68    65    1
    57    66    65    1
    58    31    29    1
    59    45    46    1
    60    45    47    2
    61    29    30    1
    62     5    47    1
    63     5     7    1
    64    65    67    1
    65    65     7    1
    66    47    48    1
    67    59    58    1
    68     7    58    1
    69     7    57    1
    70    48    57   ar
    71    48    49   ar
    72    58    60    1
    73    58    61    1
    74    57    55   ar
    75    50    49    1
    76    49    51   ar
    77    63    61    1
    78    61    62    1
    79    61    64    1
    80    55    56    1
    81    55    53   ar
    82    51    53   ar
    83    51    52    1
    84    53    54    1
