@<TRIPOS>MOLECULE
1,2
 71 73 0 0 0
SMALL
GASTEIGER

@<TRIPOS>ATOM
      1 N           0.9090    3.8785    5.9618 N.ar    1  UNL1       -0.2487
      2 N           1.4406    5.4275    3.6727 N.pl3   1  UNL1       -0.2383
      3 N          -0.4021    1.9742    8.7522 N.2     1  UNL1       -0.2529
      4 C           1.8799    4.8486    5.9320 C.ar    1  UNL1        0.0664
      5 C           2.4564    4.9930    7.2115 C.ar    1  UNL1       -0.0364
      6 C           1.8069    4.1023    8.0386 C.ar    1  UNL1       -0.0331
      7 C           0.8538    3.4336    7.2395 C.ar    1  UNL1        0.0823
      8 C           2.1415    5.5808    4.7558 C.3     1  UNL1        0.1101
      9 C          -0.1189    2.4396    7.6086 C.2     1  UNL1        0.0536
     10 C           1.8341    6.2042    2.5544 C.ar    1  UNL1        0.0554
     11 C           3.0398    5.9225    1.8991 C.ar    1  UNL1       -0.0220
     12 C           3.4533    6.7714    0.8822 C.ar    1  UNL1       -0.0565
     13 C           2.6878    7.8573    0.5070 C.ar    1  UNL1       -0.0611
     14 C           1.4686    8.0882    1.1166 C.ar    1  UNL1       -0.0565
     15 C           1.0212    7.2702    2.1427 C.ar    1  UNL1       -0.0220
     16 C           3.8697    4.7081    2.2528 C.3     1  UNL1       -0.0197
     17 C           5.2104    5.1107    2.8719 C.3     1  UNL1       -0.0586
     18 C           4.0945    3.8329    1.0172 C.3     1  UNL1       -0.0586
     19 C          -0.2774    7.5574    2.8641 C.3     1  UNL1       -0.0197
     20 C          -1.3523    8.1545    1.9540 C.3     1  UNL1       -0.0586
     21 C          -0.0045    8.5010    4.0413 C.3     1  UNL1       -0.0586
     22 C           0.1333    2.3534    9.9720 C.ar    1  UNL1        0.0707
     23 C          -0.4055    3.4477   10.6698 C.ar    1  UNL1       -0.0192
     24 C           0.0461    3.7109   11.9534 C.ar    1  UNL1       -0.0563
     25 C           1.0126    2.9260   12.5518 C.ar    1  UNL1       -0.0611
     26 C           1.5377    1.8519   11.8595 C.ar    1  UNL1       -0.0563
     27 C           1.1084    1.5471   10.5780 C.ar    1  UNL1       -0.0192
     28 C          -1.4686    4.3277   10.0541 C.3     1  UNL1       -0.0195
     29 C          -2.7825    4.1970   10.8279 C.3     1  UNL1       -0.0586
     30 C          -1.0128    5.7876   10.0005 C.3     1  UNL1       -0.0586
     31 C           1.7040    0.3731    9.8365 C.3     1  UNL1       -0.0195
     32 C           1.4460   -0.9315   10.5926 C.3     1  UNL1       -0.0586
     33 C           3.2020    0.5867    9.6109 C.3     1  UNL1       -0.0586
     34 H           3.2423    5.6753    7.4749 H       1  UNL1        0.0637
     35 H           1.9815    3.9378    9.0840 H       1  UNL1        0.0640
     36 H           2.9488    6.3176    4.7894 H       1  UNL1        0.0606
     37 H          -0.7030    2.0546    6.7703 H       1  UNL1        0.0851
     38 H           4.3940    6.5863    0.3869 H       1  UNL1        0.0621
     39 H           3.0368    8.5232   -0.2677 H       1  UNL1        0.0618
     40 H           0.8683    8.9241    0.7968 H       1  UNL1        0.0621
     41 H           3.3179    4.1063    2.9856 H       1  UNL1        0.0344
     42 H           5.7958    4.2237    3.1055 H       1  UNL1        0.0235
     43 H           5.7826    5.7264    2.1820 H       1  UNL1        0.0235
     44 H           5.0618    5.6746    3.7902 H       1  UNL1        0.0235
     45 H           3.1447    3.5964    0.5437 H       1  UNL1        0.0235
     46 H           4.7277    4.3339    0.2897 H       1  UNL1        0.0235
     47 H           4.5763    2.9006    1.3044 H       1  UNL1        0.0235
     48 H          -0.6670    6.6066    3.2681 H       1  UNL1        0.0344
     49 H          -1.1426    9.1984    1.7329 H       1  UNL1        0.0235
     50 H          -1.4221    7.6082    1.0163 H       1  UNL1        0.0235
     51 H          -2.3171    8.1076    2.4541 H       1  UNL1        0.0235
     52 H           0.7056    8.0600    4.7386 H       1  UNL1        0.0235
     53 H           0.4101    9.4401    3.6793 H       1  UNL1        0.0235
     54 H          -0.9276    8.7107    4.5763 H       1  UNL1        0.0235
     55 H          -0.3644    4.5488   12.4970 H       1  UNL1        0.0621
     56 H           1.3537    3.1496   13.5518 H       1  UNL1        0.0618
     57 H           2.2948    1.2398   12.3265 H       1  UNL1        0.0621
     58 H          -1.6510    3.9943    9.0291 H       1  UNL1        0.0344
     59 H          -2.6614    4.5244   11.8577 H       1  UNL1        0.0235
     60 H          -3.5556    4.8052   10.3626 H       1  UNL1        0.0235
     61 H          -3.1124    3.1607   10.8330 H       1  UNL1        0.0235
     62 H          -0.8731    6.1914   11.0001 H       1  UNL1        0.0235
     63 H          -0.0710    5.8715    9.4613 H       1  UNL1        0.0235
     64 H          -1.7587    6.3921    9.4887 H       1  UNL1        0.0235
     65 H           1.2191    0.2986    8.8581 H       1  UNL1        0.0344
     66 H           0.3790   -1.0644   10.7556 H       1  UNL1        0.0235
     67 H           1.8172   -1.7783   10.0195 H       1  UNL1        0.0235
     68 H           1.9436   -0.9284   11.5592 H       1  UNL1        0.0235
     69 H           3.7263    0.6918   10.5578 H       1  UNL1        0.0235
     70 H           3.6252   -0.2595    9.0756 H       1  UNL1        0.0235
     71 H           3.3699    1.4858    9.0216 H       1  UNL1        0.0235
@<TRIPOS>BOND
     1    39    13    1
     2    46    18    1
     3    38    12    1
     4    13    12   ar
     5    13    14   ar
     6    45    18    1
     7    40    14    1
     8    12    11   ar
     9    50    20    1
    10    18    47    1
    11    18    16    1
    12    14    15   ar
    13    49    20    1
    14    11    16    1
    15    11    10   ar
    16    20    51    1
    17    20    19    1
    18    15    10   ar
    19    15    19    1
    20    43    17    1
    21    16    17    1
    22    16    41    1
    23    10     2    1
    24    19    48    1
    25    19    21    1
    26    17    42    1
    27    17    44    1
    28     2     8    1
    29    53    21    1
    30    21    54    1
    31    21    52    1
    32     8    36    1
    33     8     4    1
    34     4     1   ar
    35     4     5   ar
    36     1     7   ar
    37    37     9    1
    38     5    34    1
    39     5     6   ar
    40     7     9    1
    41     7     6   ar
    42     9     3    2
    43     6    35    1
    44     3    22    1
    45    65    31    1
    46    71    33    1
    47    58    28    1
    48    70    33    1
    49    63    30    1
    50    64    30    1
    51    33    31    1
    52    33    69    1
    53    31    27    1
    54    31    32    1
    55    22    27   ar
    56    22    23   ar
    57    30    28    1
    58    30    62    1
    59    67    32    1
    60    28    23    1
    61    28    29    1
    62    60    29    1
    63    27    26   ar
    64    32    66    1
    65    32    68    1
    66    23    24   ar
    67    29    61    1
    68    29    59    1
    69    26    57    1
    70    26    25   ar
    71    24    55    1
    72    24    25   ar
    73    25    56    1
