@<TRIPOS>MOLECULE
1,2
 71 73 0 0 0
SMALL
GASTEIGER

@<TRIPOS>ATOM
      1 N           0.3298    3.1255    1.7475 N.ar    1  UNL1       -0.2487
      2 N           0.8751    1.4147    3.9160 N.pl3   1  UNL1       -0.2383
      3 N          -0.9493    5.4132   -0.7553 N.2     1  UNL1       -0.2529
      4 C           0.9668    1.9186    1.5983 C.ar    1  UNL1        0.0664
      5 C           1.1896    1.6571    0.2300 C.ar    1  UNL1       -0.0364
      6 C           0.6591    2.7220   -0.4657 C.ar    1  UNL1       -0.0331
      7 C           0.1309    3.6085    0.4983 C.ar    1  UNL1        0.0823
      8 C           1.2550    1.1045    2.7129 C.3     1  UNL1        0.1101
      9 C          -0.5729    4.8503    0.3153 C.2     1  UNL1        0.0536
     10 C           1.2618    0.5225    4.9471 C.ar    1  UNL1        0.0554
     11 C           2.6097    0.4248    5.3160 C.ar    1  UNL1       -0.0220
     12 C           2.9722   -0.5387    6.2466 C.ar    1  UNL1       -0.0565
     13 C           2.0275   -1.3702    6.8142 C.ar    1  UNL1       -0.0611
     14 C           0.6916   -1.2216    6.4910 C.ar    1  UNL1       -0.0565
     15 C           0.2866   -0.2776    5.5599 C.ar    1  UNL1       -0.0220
     16 C           3.6567    1.3605    4.7528 C.3     1  UNL1       -0.0197
     17 C           4.3776    2.1000    5.8828 C.3     1  UNL1       -0.0586
     18 C           4.6641    0.6090    3.8793 C.3     1  UNL1       -0.0586
     19 C          -1.1640   -0.1579    5.1466 C.3     1  UNL1       -0.0197
     20 C          -2.1409   -0.4496    6.2872 C.3     1  UNL1       -0.0586
     21 C          -1.4344   -1.1036    3.9705 C.3     1  UNL1       -0.0586
     22 C          -0.8210    4.9352   -2.0488 C.ar    1  UNL1        0.0707
     23 C          -1.7862    4.0613   -2.5775 C.ar    1  UNL1       -0.0192
     24 C          -1.7172    3.7204   -3.9191 C.ar    1  UNL1       -0.0563
     25 C          -0.7209    4.2160   -4.7377 C.ar    1  UNL1       -0.0611
     26 C           0.2246    5.0746   -4.2108 C.ar    1  UNL1       -0.0563
     27 C           0.1874    5.4495   -2.8776 C.ar    1  UNL1       -0.0192
     28 C          -2.8963    3.5016   -1.7184 C.3     1  UNL1       -0.0195
     29 C          -2.8771    1.9714   -1.7199 C.3     1  UNL1       -0.0586
     30 C          -4.2531    4.0284   -2.1915 C.3     1  UNL1       -0.0586
     31 C           1.2379    6.3821   -2.3213 C.3     1  UNL1       -0.0195
     32 C           2.6244    5.7420   -2.4135 C.3     1  UNL1       -0.0586
     33 C           1.2080    7.7273   -3.0491 C.3     1  UNL1       -0.0586
     34 H           1.6728    0.7880   -0.1747 H       1  UNL1        0.0637
     35 H           0.6448    2.8634   -1.5288 H       1  UNL1        0.0640
     36 H           1.7930    0.1703    2.5293 H       1  UNL1        0.0606
     37 H          -0.8285    5.3596    1.2465 H       1  UNL1        0.0851
     38 H           4.0104   -0.6474    6.5201 H       1  UNL1        0.0621
     39 H           2.3298   -2.1324    7.5164 H       1  UNL1        0.0618
     40 H          -0.0394   -1.8594    6.9604 H       1  UNL1        0.0621
     41 H           3.1575    2.1151    4.1325 H       1  UNL1        0.0344
     42 H           4.9781    1.4182    6.4792 H       1  UNL1        0.0235
     43 H           5.0354    2.8615    5.4688 H       1  UNL1        0.0235
     44 H           3.6572    2.5869    6.5355 H       1  UNL1        0.0235
     45 H           5.1726   -0.1609    4.4545 H       1  UNL1        0.0235
     46 H           4.1693    0.1337    3.0351 H       1  UNL1        0.0235
     47 H           5.4124    1.2986    3.4939 H       1  UNL1        0.0235
     48 H          -1.3429    0.8766    4.8048 H       1  UNL1        0.0344
     49 H          -1.8457    0.0632    7.1995 H       1  UNL1        0.0235
     50 H          -3.1361   -0.1114    6.0070 H       1  UNL1        0.0235
     51 H          -2.1973   -1.5164    6.4912 H       1  UNL1        0.0235
     52 H          -2.4716   -1.0224    3.6541 H       1  UNL1        0.0235
     53 H          -0.7954   -0.8645    3.1224 H       1  UNL1        0.0235
     54 H          -1.2393   -2.1329    4.2660 H       1  UNL1        0.0235
     55 H          -2.4564    3.0512   -4.3334 H       1  UNL1        0.0621
     56 H          -0.6822    3.9355   -5.7799 H       1  UNL1        0.0618
     57 H           1.0047    5.4602   -4.8502 H       1  UNL1        0.0621
     58 H          -2.7486    3.8386   -0.6889 H       1  UNL1        0.0344
     59 H          -3.6343    1.5888   -1.0390 H       1  UNL1        0.0235
     60 H          -3.0803    1.5778   -2.7127 H       1  UNL1        0.0235
     61 H          -1.9047    1.6038   -1.3969 H       1  UNL1        0.0235
     62 H          -4.2665    5.1152   -2.1536 H       1  UNL1        0.0235
     63 H          -4.4558    3.7172   -3.2135 H       1  UNL1        0.0235
     64 H          -5.0480    3.6489   -1.5526 H       1  UNL1        0.0235
     65 H           1.0157    6.5640   -1.2650 H       1  UNL1        0.0344
     66 H           2.6511    4.8167   -1.8418 H       1  UNL1        0.0235
     67 H           2.8800    5.5170   -3.4463 H       1  UNL1        0.0235
     68 H           3.3765    6.4164   -2.0122 H       1  UNL1        0.0235
     69 H           1.9184    8.4158   -2.5967 H       1  UNL1        0.0235
     70 H           1.4666    7.6102   -4.0986 H       1  UNL1        0.0235
     71 H           0.2142    8.1643   -2.9867 H       1  UNL1        0.0235
@<TRIPOS>BOND
     1    56    25    1
     2    57    26    1
     3    25    26   ar
     4    25    24   ar
     5    55    24    1
     6    26    27   ar
     7    70    33    1
     8    24    23   ar
     9    67    32    1
    10    63    30    1
    11    33    71    1
    12    33    69    1
    13    33    31    1
    14    27    31    1
    15    27    22   ar
    16    60    29    1
    17    23    22   ar
    18    23    28    1
    19    32    31    1
    20    32    68    1
    21    32    66    1
    22    31    65    1
    23    30    62    1
    24    30    28    1
    25    30    64    1
    26    22     3    1
    27    29    28    1
    28    29    61    1
    29    29    59    1
    30    28    58    1
    31    35     6    1
    32     3     9    2
    33     6     5   ar
    34     6     7   ar
    35    34     5    1
    36     5     4   ar
    37     9     7    1
    38     9    37    1
    39     7     1   ar
    40     4     1   ar
    41     4     8    1
    42    36     8    1
    43     8     2    1
    44    46    18    1
    45    53    21    1
    46    47    18    1
    47    52    21    1
    48    18    45    1
    49    18    16    1
    50     2    10    1
    51    21    54    1
    52    21    19    1
    53    41    16    1
    54    16    11    1
    55    16    17    1
    56    48    19    1
    57    10    11   ar
    58    10    15   ar
    59    19    15    1
    60    19    20    1
    61    11    12   ar
    62    43    17    1
    63    15    14   ar
    64    17    42    1
    65    17    44    1
    66    50    20    1
    67    12    38    1
    68    12    13   ar
    69    20    51    1
    70    20    49    1
    71    14    13   ar
    72    14    40    1
    73    13    39    1
