@<TRIPOS>MOLECULE
3,4
 40 40 0 0 0
SMALL
GASTEIGER

@<TRIPOS>ATOM
      1 SI          4.6501    2.3129    5.7917 Si      1  UNL1        0.0000
      2 SI          2.2942   -0.5301    1.7534 Si      1  UNL1        0.0000
      3 N           3.5632    1.9452    4.5062 N.3     1  UNL1        0.0000
      4 N           2.5766    0.7592    2.8698 N.3     1  UNL1        0.0000
      5 C           3.4829    0.8239    3.8225 C.3     1  UNL1        0.0000
      6 C           4.3725   -0.3214    4.1392 C.ar    1  UNL1        0.0000
      7 C           5.5982   -0.4661    3.5021 C.ar    1  UNL1        0.0000
      8 C           6.4287   -1.5252    3.8245 C.ar    1  UNL1        0.0000
      9 C           6.0401   -2.4487    4.7805 C.ar    1  UNL1        0.0000
     10 C           4.8154   -2.3122    5.4124 C.ar    1  UNL1        0.0000
     11 C           3.9847   -1.2526    5.0946 C.ar    1  UNL1        0.0000
     12 C           4.7032    1.0738    7.2577 C.3     1  UNL1        0.0000
     13 C           6.4734    2.4947    5.2232 C.3     1  UNL1        0.0000
     14 C           3.9989    3.9848    6.4527 C.3     1  UNL1        0.0000
     15 C           2.9726   -2.2815    2.1374 C.3     1  UNL1        0.0000
     16 C           0.4000   -0.7580    1.6029 C.3     1  UNL1        0.0000
     17 C           3.0341   -0.0216    0.0580 C.3     1  UNL1        0.0000
     18 H           5.8918    0.2492    2.7487 H       1  UNL1        0.0000
     19 H           7.3814   -1.6327    3.3263 H       1  UNL1        0.0000
     20 H           6.6890   -3.2752    5.0299 H       1  UNL1        0.0000
     21 H           4.5081   -3.0338    6.1551 H       1  UNL1        0.0000
     22 H           3.0288   -1.1392    5.5845 H       1  UNL1        0.0000
     23 H           5.2937    0.1964    7.0143 H       1  UNL1        0.0000
     24 H           3.7138    0.7327    7.5449 H       1  UNL1        0.0000
     25 H           5.1533    1.5393    8.1291 H       1  UNL1        0.0000
     26 H           6.8930    1.5335    4.9409 H       1  UNL1        0.0000
     27 H           7.0853    2.8932    6.0265 H       1  UNL1        0.0000
     28 H           6.5687    3.1622    4.3732 H       1  UNL1        0.0000
     29 H           4.7952    4.7201    6.5122 H       1  UNL1        0.0000
     30 H           3.2190    4.3688    5.7971 H       1  UNL1        0.0000
     31 H           3.5816    3.8863    7.4497 H       1  UNL1        0.0000
     32 H           4.0567   -2.3162    2.1331 H       1  UNL1        0.0000
     33 H           2.6199   -2.9848    1.3893 H       1  UNL1        0.0000
     34 H           2.6404   -2.6420    3.1056 H       1  UNL1        0.0000
     35 H          -0.0312   -1.1436    2.5219 H       1  UNL1        0.0000
     36 H           0.1713   -1.4686    0.8154 H       1  UNL1        0.0000
     37 H          -0.1039    0.1731    1.3644 H       1  UNL1        0.0000
     38 H           4.1200   -0.0207    0.0806 H       1  UNL1        0.0000
     39 H           2.7262   -0.7153   -0.7174 H       1  UNL1        0.0000
     40 H           2.7078    0.9708   -0.2374 H       1  UNL1        0.0000
@<TRIPOS>BOND
     1    39    17    1
     2    40    17    1
     3    17    38    1
     4    17     2    1
     5    36    16    1
     6    37    16    1
     7    33    15    1
     8    16     2    1
     9    16    35    1
    10     2    15    1
    11     2     4    1
    12    32    15    1
    13    15    34    1
    14    18     7    1
    15     4     5    1
    16    19     8    1
    17     7     8   ar
    18     7     6   ar
    19     5     6    1
    20     5     3    1
    21     8     9   ar
    22     6    11   ar
    23    28    13    1
    24     3     1    1
    25     9    20    1
    26     9    10   ar
    27    26    13    1
    28    11    10   ar
    29    11    22    1
    30    13     1    1
    31    13    27    1
    32    10    21    1
    33     1    14    1
    34     1    12    1
    35    30    14    1
    36    14    29    1
    37    14    31    1
    38    23    12    1
    39    12    24    1
    40    12    25    1
