@<TRIPOS>MOLECULE
1,2
 41 42 0 0 0
SMALL
GASTEIGER

@<TRIPOS>ATOM
      1 N          -0.3152    9.5770   13.3516 N.3     1  UNL1       -0.2110
      2 N          -1.0864   10.7160   15.1044 N.3     1  UNL1       -0.2110
      3 C           0.7292    9.1339   12.4454 C.3     1  UNL1        0.0275
      4 H           1.7245    9.4176   12.8218 H       1  UNL1        0.0477
      5 C           0.6901    7.6013   12.3706 C.3     1  UNL1       -0.0359
      6 H          -0.3055    7.2918   12.0450 H       1  UNL1        0.0281
      7 H           0.8534    7.1915   13.3694 H       1  UNL1        0.0281
      8 C           1.7493    7.0644   11.4121 C.3     1  UNL1       -0.0516
      9 H           2.7432    7.3209   11.7881 H       1  UNL1        0.0266
     10 H           1.6837    5.9751   11.3644 H       1  UNL1        0.0266
     11 C           1.5737    7.6596   10.0188 C.3     1  UNL1       -0.0530
     12 H           0.6091    7.3503    9.6098 H       1  UNL1        0.0265
     13 H           2.3540    7.2859    9.3518 H       1  UNL1        0.0265
     14 C           1.6308    9.1820   10.0861 C.3     1  UNL1       -0.0516
     15 H           1.4862    9.6059    9.0897 H       1  UNL1        0.0266
     16 H           2.6187    9.4900   10.4385 H       1  UNL1        0.0266
     17 C           0.5617    9.7179   11.0335 C.3     1  UNL1       -0.0359
     18 H           0.6159   10.8081   11.0767 H       1  UNL1        0.0281
     19 H          -0.4280    9.4492   10.6594 H       1  UNL1        0.0281
     20 C          -0.9928   11.6704   16.1959 C.3     1  UNL1        0.0275
     21 H           0.0419   12.0121   16.3492 H       1  UNL1        0.0477
     22 C          -1.8784   12.8966   15.9305 C.3     1  UNL1       -0.0359
     23 H          -2.8901   12.5484   15.7139 H       1  UNL1        0.0281
     24 H          -1.5160   13.4227   15.0444 H       1  UNL1        0.0281
     25 C          -1.8952   13.8488   17.1216 C.3     1  UNL1       -0.0516
     26 H          -0.8881   14.2381   17.2932 H       1  UNL1        0.0266
     27 H          -2.5475   14.6970   16.9030 H       1  UNL1        0.0266
     28 C          -2.3760   13.1292   18.3765 C.3     1  UNL1       -0.0530
     29 H          -3.4012   12.7851   18.2245 H       1  UNL1        0.0265
     30 H          -2.3744   13.8162   19.2258 H       1  UNL1        0.0265
     31 C          -1.4740   11.9353   18.6698 C.3     1  UNL1       -0.0516
     32 H          -1.8242   11.4103   19.5616 H       1  UNL1        0.0266
     33 H          -0.4611   12.2933   18.8721 H       1  UNL1        0.0266
     34 C          -1.4458   10.9718   17.4868 C.3     1  UNL1       -0.0359
     35 H          -0.7707   10.1414   17.7054 H       1  UNL1        0.0281
     36 H          -2.4384   10.5500   17.3188 H       1  UNL1        0.0281
     37 C          -0.1275   10.5790   14.1963 C.3     1  UNL1        0.1330
     38 C           1.0713   11.5016   14.1346 C.3     1  UNL1       -0.0275
     39 H           1.8417   11.1844   14.8370 H       1  UNL1        0.0262
     40 H           0.7731   12.5171   14.3824 H       1  UNL1        0.0262
     41 H           1.4945   11.5137   13.1353 H       1  UNL1        0.0262
@<TRIPOS>BOND
     1    15    14    1
     2    13    11    1
     3    12    11    1
     4    11    14    1
     5    11     8    1
     6    14    16    1
     7    14    17    1
     8    19    17    1
     9    17    18    1
    10    17     3    1
    11    10     8    1
    12     8     9    1
    13     8     5    1
    14     6     5    1
    15     5     3    1
    16     5     7    1
    17     3     4    1
    18     3     1    1
    19    41    38    1
    20     1    37    1
    21    38    37    1
    22    38    40    1
    23    38    39    1
    24    37     2    1
    25    24    22    1
    26     2    20    1
    27    23    22    1
    28    22    20    1
    29    22    25    1
    30    20    21    1
    31    20    34    1
    32    27    25    1
    33    25    26    1
    34    25    28    1
    35    36    34    1
    36    34    35    1
    37    34    31    1
    38    29    28    1
    39    28    31    1
    40    28    30    1
    41    31    33    1
    42    31    32    1
