@<TRIPOS>MOLECULE
1,2
 41 42 0 0 0
SMALL
GASTEIGER

@<TRIPOS>ATOM
      1 N          12.8777    4.2677    7.7574 N.3     1  UNL1       -0.2110
      2 N          14.5631    5.3935    6.8316 N.3     1  UNL1       -0.2110
      3 C          11.8340    3.2575    7.7908 C.3     1  UNL1        0.0275
      4 H          11.9068    2.5700    6.9346 H       1  UNL1        0.0477
      5 C          10.4418    3.9055    7.7808 C.3     1  UNL1       -0.0359
      6 H          10.2997    4.4494    6.8440 H       1  UNL1        0.0281
      7 H          10.3968    4.6338    8.5927 H       1  UNL1        0.0281
      8 C           9.3364    2.8678    7.9452 C.3     1  UNL1       -0.0516
      9 H           8.3645    3.3657    7.9501 H       1  UNL1        0.0266
     10 H           9.3533    2.1777    7.0974 H       1  UNL1        0.0266
     11 C           9.5273    2.0813    9.2370 C.3     1  UNL1       -0.0530
     12 H           9.4602    2.7631   10.0875 H       1  UNL1        0.0265
     13 H           8.7368    1.3346    9.3414 H       1  UNL1        0.0265
     14 C          10.8916    1.4002    9.2341 C.3     1  UNL1       -0.0516
     15 H          10.9312    0.6818    8.4110 H       1  UNL1        0.0266
     16 H          11.0363    0.8463   10.1644 H       1  UNL1        0.0266
     17 C          12.0109    2.4245    9.0692 C.3     1  UNL1       -0.0359
     18 H          12.0294    3.1049    9.9224 H       1  UNL1        0.0281
     19 H          12.9756    1.9131    9.0382 H       1  UNL1        0.0281
     20 C          13.5646    4.5422    6.6549 C.3     1  UNL1        0.1330
     21 C          13.2214    3.9355    5.3108 C.3     1  UNL1       -0.0275
     22 H          13.5778    4.5669    4.5033 H       1  UNL1        0.0262
     23 H          12.1434    3.8407    5.2087 H       1  UNL1        0.0262
     24 H          13.6687    2.9473    5.2059 H       1  UNL1        0.0262
     25 C          15.5568    5.6313    5.7999 C.3     1  UNL1        0.0275
     26 H          15.6145    4.7794    5.1044 H       1  UNL1        0.0477
     27 C          16.9312    5.7663    6.4699 C.3     1  UNL1       -0.0359
     28 H          16.8863    6.5765    7.2010 H       1  UNL1        0.0281
     29 H          17.1560    4.8450    7.0108 H       1  UNL1        0.0281
     30 C          18.0253    6.0426    5.4424 C.3     1  UNL1       -0.0516
     31 H          18.1069    5.1918    4.7609 H       1  UNL1        0.0266
     32 H          18.9861    6.1543    5.9498 H       1  UNL1        0.0266
     33 C          17.7111    7.2991    4.6371 C.3     1  UNL1       -0.0530
     34 H          17.6953    8.1642    5.3038 H       1  UNL1        0.0265
     35 H          18.4895    7.4682    3.8895 H       1  UNL1        0.0265
     36 C          16.3543    7.1607    3.9548 C.3     1  UNL1       -0.0516
     37 H          16.3916    6.3308    3.2443 H       1  UNL1        0.0266
     38 H          16.1238    8.0690    3.3934 H       1  UNL1        0.0266
     39 C          15.2597    6.9005    4.9853 C.3     1  UNL1       -0.0359
     40 H          15.1922    7.7477    5.6704 H       1  UNL1        0.0281
     41 H          14.2939    6.8000    4.4849 H       1  UNL1        0.0281
@<TRIPOS>BOND
     1    37    36    1
     2    38    36    1
     3    35    33    1
     4    36    33    1
     5    36    39    1
     6    41    39    1
     7    22    21    1
     8    33    34    1
     9    33    30    1
    10    31    30    1
    11    39    40    1
    12    39    25    1
    13    26    25    1
    14    24    21    1
    15    23    21    1
    16    21    20    1
    17    30    32    1
    18    30    27    1
    19    25    27    1
    20    25     2    1
    21    27    29    1
    22    27    28    1
    23    20     2    1
    24    20     1    1
    25     6     5    1
    26     4     3    1
    27    10     8    1
    28     1     3    1
    29     5     3    1
    30     5     8    1
    31     5     7    1
    32     3    17    1
    33     8     9    1
    34     8    11    1
    35    15    14    1
    36    19    17    1
    37    17    14    1
    38    17    18    1
    39    14    11    1
    40    14    16    1
    41    11    13    1
    42    11    12    1
