@<TRIPOS>MOLECULE
1,2
 20 21 0 0 0
SMALL
GASTEIGER

@<TRIPOS>ATOM
      1 N           0.9603    3.6852   15.2012 N.pl3   1  UNL1       -0.2208
      2 N          -1.1433    3.2451   16.7802 N.pl3   1  UNL1       -0.2208
      3 C           1.1890    2.9832   16.3268 C.2     1  UNL1        0.0759
      4 C           2.4839    2.6302   16.7093 C.2     1  UNL1       -0.0368
      5 H           2.6589    2.1098   17.6361 H       1  UNL1        0.0637
      6 C           3.5501    2.9616   15.8970 C.2     1  UNL1       -0.0587
      7 H           4.5564    2.6923   16.1772 H       1  UNL1        0.0619
      8 C           3.2968    3.6427   14.7141 C.2     1  UNL1       -0.0459
      9 H           4.0941    3.9040   14.0380 H       1  UNL1        0.0631
     10 C           1.9925    3.9914   14.4224 C.2     1  UNL1        0.0174
     11 H           1.7605    4.5361   13.5191 H       1  UNL1        0.0802
     12 C           0.0082    2.6311   17.1184 C.2     1  UNL1        0.0759
     13 C           0.0585    1.7102   18.1663 C.2     1  UNL1       -0.0368
     14 H           0.9785    1.2021   18.4018 H       1  UNL1        0.0637
     15 C          -1.0834    1.4318   18.8900 C.2     1  UNL1       -0.0587
     16 H          -1.0603    0.7161   19.6967 H       1  UNL1        0.0619
     17 C          -2.2566    2.0954   18.5558 C.2     1  UNL1       -0.0459
     18 H          -3.1717    1.9229   19.0981 H       1  UNL1        0.0631
     19 C          -2.2312    2.9859   17.5016 C.2     1  UNL1        0.0174
     20 H          -3.1270    3.5235   17.2233 H       1  UNL1        0.0802
@<TRIPOS>BOND
     1    11    10    1
     2     9     8    1
     3    10     8    2
     4    10     1    1
     5     8     6    1
     6     1     3    1
     7     6     7    1
     8     6     4    2
     9     3     4    1
    10     3    12    2
    11     4     5    1
    12     2    12    1
    13     2    19    1
    14    12    13    1
    15    20    19    1
    16    19    17    2
    17    13    14    1
    18    13    15    2
    19    17    15    1
    20    17    18    1
    21    15    16    1
