@<TRIPOS>MOLECULE
1,2
 20 21 0 0 0
SMALL
GASTEIGER

@<TRIPOS>ATOM
      1 N           5.6629    1.9653    4.5397 N.pl3   1  UNL1       -0.2208
      2 N           7.4287    3.5911    5.2888 N.pl3   1  UNL1       -0.2208
      3 C           6.9278    1.5180    4.3132 C.2     1  UNL1        0.0759
      4 C           7.1738    0.2738    3.7353 C.2     1  UNL1       -0.0368
      5 H           8.1874   -0.0433    3.5565 H       1  UNL1        0.0637
      6 C           6.1164   -0.5439    3.3969 C.2     1  UNL1       -0.0587
      7 H           6.2852   -1.5099    2.9504 H       1  UNL1        0.0619
      8 C           4.8245   -0.0896    3.6484 C.2     1  UNL1       -0.0459
      9 H           3.9669   -0.6956    3.4065 H       1  UNL1        0.0631
     10 C           4.6498    1.1559    4.2080 C.2     1  UNL1        0.0174
     11 H           3.6536    1.5316    4.3901 H       1  UNL1        0.0802
     12 C           7.9466    2.4490    4.7575 C.2     1  UNL1        0.0759
     13 C           9.3214    2.2273    4.6983 C.2     1  UNL1       -0.0368
     14 H           9.6995    1.3180    4.2619 H       1  UNL1        0.0637
     15 C          10.1890    3.1730    5.2050 C.2     1  UNL1       -0.0587
     16 H          11.2551    3.0193    5.1708 H       1  UNL1        0.0619
     17 C           9.6523    4.3290    5.7672 C.2     1  UNL1       -0.0459
     18 H          10.2907    5.0906    6.1837 H       1  UNL1        0.0631
     19 C           8.2855    4.4942    5.7837 C.2     1  UNL1        0.0174
     20 H           7.8479    5.3883    6.2025 H       1  UNL1        0.0802
@<TRIPOS>BOND
     1     7     6    1
     2     6     8    1
     3     6     4    2
     4     9     8    1
     5     5     4    1
     6     8    10    2
     7     4     3    1
     8    10    11    1
     9    10     1    1
    10    14    13    1
    11     3     1    1
    12     3    12    2
    13    13    12    1
    14    13    15    2
    15    12     2    1
    16    16    15    1
    17    15    17    1
    18     2    19    1
    19    17    19    2
    20    17    18    1
    21    19    20    1
