@<TRIPOS>MOLECULE
1,17
 44 44 0 0 0
SMALL
GASTEIGER

@<TRIPOS>ATOM
      1 N           7.1486    3.4755    2.7686 N.pl3   1  UNL1        0.0000
      2 SI          7.2013    2.2978    1.4872 Si      1  UNL1        0.0000
      3 C           7.4866    3.0904   -0.2300 C.3     1  UNL1        0.0000
      4 H           6.8994    3.9945   -0.3558 H       1  UNL1        0.0000
      5 H           7.1987    2.3939   -1.0096 H       1  UNL1        0.0000
      6 H           8.5278    3.3454   -0.3941 H       1  UNL1        0.0000
      7 C           5.4510    1.5026    1.4903 C.3     1  UNL1        0.0000
      8 H           4.7346    2.1883    1.9457 H       1  UNL1        0.0000
      9 H           5.4464    0.5900    2.0782 H       1  UNL1        0.0000
     10 H           5.1028    1.2600    0.4913 H       1  UNL1        0.0000
     11 C           8.5662    1.0048    1.8301 C.3     1  UNL1        0.0000
     12 H           9.5641    1.4071    1.6828 H       1  UNL1        0.0000
     13 H           8.4521    0.1609    1.1586 H       1  UNL1        0.0000
     14 H           8.4955    0.6326    2.8477 H       1  UNL1        0.0000
     15 C           7.0600    4.8316    2.5254 C.ar    1  UNL1        0.0000
     16 C           5.9458    5.5120    3.0994 C.ar    1  UNL1        0.0000
     17 N           5.0691    4.7238    3.8024 N.pl3   1  UNL1        0.0000
     18 SI          3.3448    4.8364    3.8554 Si      1  UNL1        0.0000
     19 C           2.6699    4.8964    2.0655 C.3     1  UNL1        0.0000
     20 H           3.0911    5.7365    1.5207 H       1  UNL1        0.0000
     21 H           1.5911    5.0084    2.0652 H       1  UNL1        0.0000
     22 H           2.9112    3.9941    1.5116 H       1  UNL1        0.0000
     23 C           2.6661    6.3445    4.8242 C.3     1  UNL1        0.0000
     24 H           2.5783    7.2206    4.1876 H       1  UNL1        0.0000
     25 H           3.3075    6.6018    5.6626 H       1  UNL1        0.0000
     26 H           1.6767    6.1307    5.2161 H       1  UNL1        0.0000
     27 C           2.9101    3.2047    4.7485 C.3     1  UNL1        0.0000
     28 H           3.4966    2.3736    4.3493 H       1  UNL1        0.0000
     29 H           1.8588    2.9523    4.6562 H       1  UNL1        0.0000
     30 H           3.1431    3.2855    5.8078 H       1  UNL1        0.0000
     31 C           5.8214    6.8861    2.9191 C.ar    1  UNL1        0.0000
     32 C           6.7510    7.6048    2.1848 C.ar    1  UNL1        0.0000
     33 C           7.8408    6.9378    1.6081 C.ar    1  UNL1        0.0000
     34 C           7.9810    5.5699    1.7880 C.ar    1  UNL1        0.0000
     35 H           8.8287    5.0526    1.3606 H       1  UNL1        0.0000
     36 C           8.8580    7.6943    0.8056 C.3     1  UNL1        0.0000
     37 H           9.6351    7.0252    0.4449 H       1  UNL1        0.0000
     38 H           9.3243    8.4751    1.4065 H       1  UNL1        0.0000
     39 H           8.3895    8.1749   -0.0530 H       1  UNL1        0.0000
     40 C           6.5885    9.0862    2.0170 C.3     1  UNL1        0.0000
     41 H           7.4472    9.6171    2.4281 H       1  UNL1        0.0000
     42 H           5.6930    9.4327    2.5265 H       1  UNL1        0.0000
     43 H           6.5117    9.3492    0.9621 H       1  UNL1        0.0000
     44 H           4.9776    7.3888    3.3719 H       1  UNL1        0.0000
@<TRIPOS>BOND
     1     5     3    1
     2     6     3    1
     3     4     3    1
     4     3     2    1
     5    39    36    1
     6    37    36    1
     7    10     7    1
     8    36    38    1
     9    36    33    1
    10    43    40    1
    11    13    11    1
    12    35    34    1
    13     2     7    1
    14     2    11    1
    15     2     1    1
    16     7     8    1
    17     7     9    1
    18    22    19    1
    19    20    19    1
    20    33    34   ar
    21    33    32   ar
    22    12    11    1
    23    34    15   ar
    24    11    14    1
    25    40    32    1
    26    40    41    1
    27    40    42    1
    28    21    19    1
    29    19    18    1
    30    32    31   ar
    31    15     1    1
    32    15    16   ar
    33    31    16   ar
    34    31    44    1
    35    16    17    1
    36    17    18    1
    37    18    27    1
    38    18    23    1
    39    24    23    1
    40    28    27    1
    41    29    27    1
    42    27    30    1
    43    23    26    1
    44    23    25    1
