@<TRIPOS>MOLECULE
3,4
 44 44 0 0 0
SMALL
GASTEIGER

@<TRIPOS>ATOM
      1 SI          5.7440    2.2978    7.7912 Si      1  UNL1        0.0000
      2 SI          9.6006    4.8364    5.4231 Si      1  UNL1        0.0000
      3 N           5.7968    3.4755    6.5098 N.pl3   1  UNL1        0.0000
      4 N           7.8764    4.7238    5.4759 N.pl3   1  UNL1        0.0000
      5 C           6.9996    5.5120    6.1790 C.ar    1  UNL1        0.0000
      6 C           5.8855    4.8316    6.7531 C.ar    1  UNL1        0.0000
      7 H           4.1170    5.0526    7.9181 H       1  UNL1        0.0000
      8 C           4.9646    5.5699    7.4906 C.ar    1  UNL1        0.0000
      9 C           5.1048    6.9378    7.6706 C.ar    1  UNL1        0.0000
     10 C           6.1946    7.6049    7.0937 C.ar    1  UNL1        0.0000
     11 H           7.9678    7.3888    5.9063 H       1  UNL1        0.0000
     12 C           7.1240    6.8861    6.3592 C.ar    1  UNL1        0.0000
     13 H           9.8539    5.7363    7.7580 H       1  UNL1        0.0000
     14 H          11.3541    5.0084    7.2137 H       1  UNL1        0.0000
     15 H          10.0339    3.9939    7.7669 H       1  UNL1        0.0000
     16 C          10.2752    4.8963    7.2131 C.3     1  UNL1        0.0000
     17 H          10.3673    7.2206    5.0911 H       1  UNL1        0.0000
     18 H           9.6381    6.6020    3.6161 H       1  UNL1        0.0000
     19 H          11.2689    6.1307    4.0625 H       1  UNL1        0.0000
     20 C          10.2795    6.3446    4.4544 C.3     1  UNL1        0.0000
     21 H           9.4491    2.3735    4.9293 H       1  UNL1        0.0000
     22 H          11.0867    2.9525    4.6221 H       1  UNL1        0.0000
     23 H           9.8021    3.2854    3.4707 H       1  UNL1        0.0000
     24 C          10.0355    3.2047    4.5300 C.3     1  UNL1        0.0000
     25 H           6.0456    3.9945    9.6343 H       1  UNL1        0.0000
     26 H           5.7464    2.3939   10.2880 H       1  UNL1        0.0000
     27 H           4.4173    3.3453    9.6724 H       1  UNL1        0.0000
     28 C           5.4585    3.0904    9.5084 C.3     1  UNL1        0.0000
     29 H           8.2108    2.1883    7.3329 H       1  UNL1        0.0000
     30 H           7.4991    0.5901    7.2004 H       1  UNL1        0.0000
     31 H           7.8426    1.2602    8.7874 H       1  UNL1        0.0000
     32 C           7.4944    1.5027    7.7883 C.3     1  UNL1        0.0000
     33 H           3.3814    1.4069    7.5954 H       1  UNL1        0.0000
     34 H           4.4934    0.1608    8.1196 H       1  UNL1        0.0000
     35 H           4.4501    0.6326    6.4305 H       1  UNL1        0.0000
     36 C           4.3793    1.0047    7.4481 C.3     1  UNL1        0.0000
     37 H           3.3116    7.0249    8.8353 H       1  UNL1        0.0000
     38 H           3.6201    8.4740    7.8717 H       1  UNL1        0.0000
     39 H           4.5566    8.1763    9.3308 H       1  UNL1        0.0000
     40 C           4.0877    7.6943    8.4732 C.3     1  UNL1        0.0000
     41 H           5.4985    9.6170    6.8496 H       1  UNL1        0.0000
     42 H           7.2528    9.4326    6.7523 H       1  UNL1        0.0000
     43 H           6.4332    9.3495    8.3161 H       1  UNL1        0.0000
     44 C           6.3569    9.0862    7.2613 C.3     1  UNL1        0.0000
@<TRIPOS>BOND
     1    23    24    1
     2    18    20    1
     3    19    20    1
     4    20    17    1
     5    20     2    1
     6    24    22    1
     7    24    21    1
     8    24     2    1
     9     2     4    1
    10     2    16    1
    11     4     5    1
    12    11    12    1
    13     5    12   ar
    14     5     6   ar
    15    12    10   ar
    16    35    36    1
    17     3     6    1
    18     3     1    1
    19    42    44    1
    20     6     8   ar
    21    41    44    1
    22    10    44    1
    23    10     9   ar
    24    30    32    1
    25    16    14    1
    26    16    13    1
    27    16    15    1
    28    44    43    1
    29    29    32    1
    30    36    33    1
    31    36     1    1
    32    36    34    1
    33     8     9   ar
    34     8     7    1
    35     9    40    1
    36    32     1    1
    37    32    31    1
    38     1    28    1
    39    38    40    1
    40    40    37    1
    41    40    39    1
    42    28    25    1
    43    28    27    1
    44    28    26    1
