@<TRIPOS>MOLECULE
3,4
 44 44 0 0 0
SMALL
GASTEIGER

@<TRIPOS>ATOM
      1 SI          1.3297    4.1663    4.1361 Si      1  UNL1        0.0000
      2 SI          0.7135   -1.0341    7.1555 Si      1  UNL1        0.0000
      3 N           0.8523    2.6663    4.7582 N.3     1  UNL1        0.0000
      4 N           0.7360    0.2274    6.0274 N.3     1  UNL1        0.0000
      5 C           0.2908    1.5591    4.0108 C.3     1  UNL1        0.0000
      6 H           1.0748    1.0866    3.3857 H       1  UNL1        0.0000
      7 C          -0.8485    1.9500    3.0613 C.3     1  UNL1        0.0000
      8 H          -0.5000    2.7363    2.3902 H       1  UNL1        0.0000
      9 H          -1.6787    2.3522    3.6456 H       1  UNL1        0.0000
     10 C          -1.2991    0.7351    2.2537 C.3     1  UNL1        0.0000
     11 H          -2.1310    1.0104    1.6013 H       1  UNL1        0.0000
     12 H          -0.4735    0.4049    1.6189 H       1  UNL1        0.0000
     13 C          -1.7210   -0.4139    3.1666 C.3     1  UNL1        0.0000
     14 H          -1.9668   -1.2910    2.5636 H       1  UNL1        0.0000
     15 H          -2.6202   -0.1248    3.7156 H       1  UNL1        0.0000
     16 C          -0.6206   -0.7625    4.1658 C.3     1  UNL1        0.0000
     17 H          -0.9652   -1.5455    4.8427 H       1  UNL1        0.0000
     18 H           0.2656   -1.1345    3.6472 H       1  UNL1        0.0000
     19 C          -0.2395    0.4766    4.9854 C.3     1  UNL1        0.0000
     20 H          -1.1789    0.8627    5.4294 H       1  UNL1        0.0000
     21 C           2.3233    4.1896    2.4815 C.3     1  UNL1        0.0000
     22 H           3.2304    3.5938    2.5462 H       1  UNL1        0.0000
     23 H           2.6140    5.1979    2.2044 H       1  UNL1        0.0000
     24 H           1.7307    3.7896    1.6644 H       1  UNL1        0.0000
     25 C          -0.0673    5.4798    3.9339 C.3     1  UNL1        0.0000
     26 H          -0.7368    5.2334    3.1159 H       1  UNL1        0.0000
     27 H           0.3408    6.4651    3.7322 H       1  UNL1        0.0000
     28 H          -0.6681    5.5514    4.8364 H       1  UNL1        0.0000
     29 C           2.5022    4.7559    5.5376 C.3     1  UNL1        0.0000
     30 H           2.0328    4.5757    6.5134 H       1  UNL1        0.0000
     31 H           2.7326    5.8150    5.4629 H       1  UNL1        0.0000
     32 H           3.4447    4.2068    5.4867 H       1  UNL1        0.0000
     33 C          -0.9645   -1.4611    8.0079 C.3     1  UNL1        0.0000
     34 H          -1.4014   -0.5939    8.4967 H       1  UNL1        0.0000
     35 H          -0.8449   -2.2344    8.7600 H       1  UNL1        0.0000
     36 H          -1.6887   -1.8245    7.2853 H       1  UNL1        0.0000
     37 C           1.4469   -2.7144    6.5577 C.3     1  UNL1        0.0000
     38 H           0.7946   -3.2074    5.8439 H       1  UNL1        0.0000
     39 H           1.5960   -3.3994    7.3865 H       1  UNL1        0.0000
     40 H           2.4091   -2.5692    6.0740 H       1  UNL1        0.0000
     41 C           1.8901   -0.3139    8.4908 C.3     1  UNL1        0.0000
     42 H           2.7816    0.1087    8.0096 H       1  UNL1        0.0000
     43 H           2.2145   -1.0678    9.2026 H       1  UNL1        0.0000
     44 H           1.3787    0.4723    9.0498 H       1  UNL1        0.0000
@<TRIPOS>BOND
     1    11    10    1
     2    12    10    1
     3    24    21    1
     4    23    21    1
     5    10     7    1
     6    10    13    1
     7     8     7    1
     8    21    22    1
     9    21     1    1
    10    14    13    1
    11     7     9    1
    12     7     5    1
    13    26    25    1
    14    13    15    1
    15    13    16    1
    16     6     5    1
    17    18    16    1
    18    27    25    1
    19    25     1    1
    20    25    28    1
    21     5     3    1
    22     5    19    1
    23     1     3    1
    24     1    29    1
    25    16    17    1
    26    16    19    1
    27    19    20    1
    28    19     4    1
    29    31    29    1
    30    32    29    1
    31    29    30    1
    32    38    37    1
    33     4     2    1
    34    40    37    1
    35    37     2    1
    36    37    39    1
    37     2    33    1
    38     2    41    1
    39    36    33    1
    40    33    34    1
    41    33    35    1
    42    42    41    1
    43    41    44    1
    44    41    43    1
