@<TRIPOS>MOLECULE
3,4
 44 44 0 0 0
SMALL
GASTEIGER

@<TRIPOS>ATOM
      1 SI          3.3044   15.0851    8.0867 Si      1  UNL1        0.0000
      2 SI         -0.9683   11.3679    5.9725 Si      1  UNL1        0.0000
      3 N           2.2323   13.8153    7.7657 N.3     1  UNL1        0.0000
      4 N           0.1461   12.2433    6.8982 N.3     1  UNL1        0.0000
      5 C           1.6328   12.9210    8.7352 C.3     1  UNL1        0.0000
      6 H           0.8605   13.4600    9.3197 H       1  UNL1        0.0000
      7 C           2.6203   12.3343    9.7516 C.3     1  UNL1        0.0000
      8 H           3.1514   13.1492   10.2454 H       1  UNL1        0.0000
      9 H           3.3575   11.7257    9.2237 H       1  UNL1        0.0000
     10 C           1.8720   11.4950   10.7843 C.3     1  UNL1        0.0000
     11 H           2.5800   11.0559   11.4910 H       1  UNL1        0.0000
     12 H           1.1982   12.1445   11.3480 H       1  UNL1        0.0000
     13 C           1.0594   10.3886   10.1154 C.3     1  UNL1        0.0000
     14 H           0.4817    9.8489   10.8693 H       1  UNL1        0.0000
     15 H           1.7416    9.6763    9.6456 H       1  UNL1        0.0000
     16 C           0.1241   10.9553    9.0500 C.3     1  UNL1        0.0000
     17 H          -0.4084   10.1453    8.5499 H       1  UNL1        0.0000
     18 H          -0.6191   11.6148    9.5031 H       1  UNL1        0.0000
     19 C           0.9295   11.7448    8.0103 C.3     1  UNL1        0.0000
     20 H           1.7208   11.0628    7.6398 H       1  UNL1        0.0000
     21 C           2.9471   16.2146    9.6097 C.3     1  UNL1        0.0000
     22 H           3.6512   17.0383    9.6701 H       1  UNL1        0.0000
     23 H           3.0246   15.6564   10.5375 H       1  UNL1        0.0000
     24 H           1.9477   16.6406    9.5703 H       1  UNL1        0.0000
     25 C           3.0651   16.1390    6.4997 C.3     1  UNL1        0.0000
     26 H           3.8272   16.9061    6.3948 H       1  UNL1        0.0000
     27 H           2.0930   16.6365    6.5276 H       1  UNL1        0.0000
     28 H           3.1108   15.4883    5.6171 H       1  UNL1        0.0000
     29 C           5.1666   14.5989    8.2047 C.3     1  UNL1        0.0000
     30 H           5.3774   14.0262    9.1023 H       1  UNL1        0.0000
     31 H           5.8065   15.4754    8.2222 H       1  UNL1        0.0000
     32 H           5.4635   13.9917    7.3537 H       1  UNL1        0.0000
     33 C          -1.0127   12.4470    4.3848 C.3     1  UNL1        0.0000
     34 H          -1.1159   13.5041    4.6612 H       1  UNL1        0.0000
     35 H          -1.8403   12.1854    3.7314 H       1  UNL1        0.0000
     36 H          -0.0873   12.3138    3.8196 H       1  UNL1        0.0000
     37 C          -0.5057    9.5673    5.4550 C.3     1  UNL1        0.0000
     38 H          -1.2743    9.1207    4.8324 H       1  UNL1        0.0000
     39 H          -0.3858    8.9295    6.3253 H       1  UNL1        0.0000
     40 H           0.4272    9.5341    4.8978 H       1  UNL1        0.0000
     41 C          -2.7582   11.2763    6.6834 C.3     1  UNL1        0.0000
     42 H          -3.4596   10.8971    5.9470 H       1  UNL1        0.0000
     43 H          -3.1046   12.2590    6.9919 H       1  UNL1        0.0000
     44 H          -2.8149   10.6247    7.5495 H       1  UNL1        0.0000
@<TRIPOS>BOND
     1    35    33    1
     2    36    33    1
     3    33    34    1
     4    33     2    1
     5    38    37    1
     6    40    37    1
     7    37     2    1
     8    37    39    1
     9    28    25    1
    10    42    41    1
    11     2    41    1
    12     2     4    1
    13    26    25    1
    14    25    27    1
    15    25     1    1
    16    41    43    1
    17    41    44    1
    18     4    19    1
    19    32    29    1
    20    20    19    1
    21     3     1    1
    22     3     5    1
    23    19     5    1
    24    19    16    1
    25     1    29    1
    26     1    21    1
    27    29    31    1
    28    29    30    1
    29    17    16    1
    30     5     6    1
    31     5     7    1
    32    16    18    1
    33    16    13    1
    34     9     7    1
    35    24    21    1
    36    21    22    1
    37    21    23    1
    38    15    13    1
    39     7     8    1
    40     7    10    1
    41    13    10    1
    42    13    14    1
    43    10    12    1
    44    10    11    1
