@<TRIPOS>MOLECULE
3,4
 44 44 0 0 0
SMALL
GASTEIGER

@<TRIPOS>ATOM
      1 SI         -1.1217   16.2578    6.3777 Si      1  UNL1        0.0000
      2 SI          3.1010   12.8379    3.7289 Si      1  UNL1        0.0000
      3 N          -0.0651   15.4649    5.3196 N.3     1  UNL1        0.0000
      4 N           1.9996   14.0378    4.1896 N.3     1  UNL1        0.0000
      5 C           0.5369   16.0127    4.1211 C.3     1  UNL1        0.0000
      6 H           1.3199   16.7483    4.3936 H       1  UNL1        0.0000
      7 C          -0.4438   16.7425    3.1946 C.3     1  UNL1        0.0000
      8 H          -0.9634   17.5157    3.7621 H       1  UNL1        0.0000
      9 H          -1.1912   16.0326    2.8338 H       1  UNL1        0.0000
     10 C           0.3107   17.3689    2.0245 C.3     1  UNL1        0.0000
     11 H          -0.3915   17.8669    1.3520 H       1  UNL1        0.0000
     12 H           0.9968   18.1266    2.4102 H       1  UNL1        0.0000
     13 C           1.1062   16.3186    1.2526 C.3     1  UNL1        0.0000
     14 H           1.6891   16.8032    0.4660 H       1  UNL1        0.0000
     15 H           0.4127   15.6238    0.7731 H       1  UNL1        0.0000
     16 C           2.0328   15.5343    2.1783 C.3     1  UNL1        0.0000
     17 H           2.7882   16.1924    2.6130 H       1  UNL1        0.0000
     18 H           2.5511   14.7555    1.6172 H       1  UNL1        0.0000
     19 C           1.2228   14.8851    3.3075 C.3     1  UNL1        0.0000
     20 H           0.4219   14.2922    2.8218 H       1  UNL1        0.0000
     21 C          -0.7430   18.0930    6.8381 C.3     1  UNL1        0.0000
     22 H          -1.4245   18.4627    7.5976 H       1  UNL1        0.0000
     23 H          -0.8421   18.7420    5.9736 H       1  UNL1        0.0000
     24 H           0.2680   18.2126    7.2194 H       1  UNL1        0.0000
     25 C          -2.9882   16.2009    5.8971 C.3     1  UNL1        0.0000
     26 H          -3.6178   16.5623    6.7039 H       1  UNL1        0.0000
     27 H          -3.2991   15.1853    5.6669 H       1  UNL1        0.0000
     28 H          -3.1984   16.8112    5.0245 H       1  UNL1        0.0000
     29 C          -0.8825   15.1919    7.9570 C.3     1  UNL1        0.0000
     30 H          -1.6382   15.3955    8.7104 H       1  UNL1        0.0000
     31 H           0.0943   15.3987    8.4003 H       1  UNL1        0.0000
     32 H          -0.9399   14.1279    7.6940 H       1  UNL1        0.0000
     33 C           4.8956   13.4409    3.3631 C.3     1  UNL1        0.0000
     34 H           4.9516   14.0011    2.4352 H       1  UNL1        0.0000
     35 H           5.5856   12.6073    3.2799 H       1  UNL1        0.0000
     36 H           5.2569   14.0889    4.1572 H       1  UNL1        0.0000
     37 C           2.6179   11.6754    2.2663 C.3     1  UNL1        0.0000
     38 H           3.3670   10.9074    2.1021 H       1  UNL1        0.0000
     39 H           2.5198   12.2327    1.3398 H       1  UNL1        0.0000
     40 H           1.6697   11.1747    2.4455 H       1  UNL1        0.0000
     41 C           3.1438   11.7830    5.3326 C.3     1  UNL1        0.0000
     42 H           3.9666   11.0737    5.3379 H       1  UNL1        0.0000
     43 H           2.2150   11.2161    5.4291 H       1  UNL1        0.0000
     44 H           3.2547   12.4422    6.2030 H       1  UNL1        0.0000
@<TRIPOS>BOND
     1    14    13    1
     2    15    13    1
     3    13    10    1
     4    13    16    1
     5    39    37    1
     6    11    10    1
     7    18    16    1
     8    10    12    1
     9    10     7    1
    10    38    37    1
    11    16    17    1
    12    16    19    1
    13    37    40    1
    14    37     2    1
    15    34    33    1
    16    20    19    1
    17     9     7    1
    18     7     8    1
    19     7     5    1
    20    35    33    1
    21    19     5    1
    22    19     4    1
    23    33     2    1
    24    33    36    1
    25     2     4    1
    26     2    41    1
    27     5     6    1
    28     5     3    1
    29    28    25    1
    30     3     1    1
    31    41    42    1
    32    41    43    1
    33    41    44    1
    34    27    25    1
    35    25     1    1
    36    25    26    1
    37    23    21    1
    38     1    21    1
    39     1    29    1
    40    21    24    1
    41    21    22    1
    42    32    29    1
    43    29    31    1
    44    29    30    1
