@<TRIPOS>MOLECULE
3,4
 44 44 0 0 0
SMALL
GASTEIGER

@<TRIPOS>ATOM
      1 SI          0.1064    3.4360    8.8924 Si      1  UNL1        0.0000
      2 SI          4.8571    1.3104    5.8186 Si      1  UNL1        0.0000
      3 N           1.6335    3.0832    8.2527 N.3     1  UNL1        0.0000
      4 N           3.7732    1.9297    6.9616 N.3     1  UNL1        0.0000
      5 C           2.8756    2.9824    8.9922 C.3     1  UNL1        0.0000
      6 H           2.8771    2.0613    9.6087 H       1  UNL1        0.0000
      7 C           3.1364    4.1508    9.9510 C.3     1  UNL1        0.0000
      8 H           3.2183    5.0747    9.3746 H       1  UNL1        0.0000
      9 H           2.2869    4.2534   10.6276 H       1  UNL1        0.0000
     10 C           4.4136    3.9010   10.7492 C.3     1  UNL1        0.0000
     11 H           4.6123    4.7496   11.4078 H       1  UNL1        0.0000
     12 H           4.2729    3.0181   11.3771 H       1  UNL1        0.0000
     13 C           5.6096    3.6755    9.8270 C.3     1  UNL1        0.0000
     14 H           6.4914    3.4277   10.4225 H       1  UNL1        0.0000
     15 H           5.8235    4.5991    9.2841 H       1  UNL1        0.0000
     16 C           5.3327    2.5614    8.8205 C.3     1  UNL1        0.0000
     17 H           5.1940    1.6069    9.3327 H       1  UNL1        0.0000
     18 H           6.1775    2.4553    8.1386 H       1  UNL1        0.0000
     19 C           4.0710    2.8842    8.0103 C.3     1  UNL1        0.0000
     20 H           4.2251    3.8914    7.5740 H       1  UNL1        0.0000
     21 C          -0.4135    2.5634   10.5340 C.3     1  UNL1        0.0000
     22 H          -0.4283    1.4813   10.4301 H       1  UNL1        0.0000
     23 H          -1.4022    2.8742   10.8557 H       1  UNL1        0.0000
     24 H           0.2760    2.8021   11.3378 H       1  UNL1        0.0000
     25 C          -0.2934    5.3066    9.1357 C.3     1  UNL1        0.0000
     26 H           0.2423    5.7268    9.9809 H       1  UNL1        0.0000
     27 H          -1.3525    5.4655    9.3124 H       1  UNL1        0.0000
     28 H          -0.0170    5.8815    8.2559 H       1  UNL1        0.0000
     29 C          -1.0146    2.7648    7.4858 C.3     1  UNL1        0.0000
     30 H          -0.6218    3.0865    6.5125 H       1  UNL1        0.0000
     31 H          -2.0381    3.1187    7.5719 H       1  UNL1        0.0000
     32 H          -1.0368    1.6737    7.5197 H       1  UNL1        0.0000
     33 C           6.0821    2.5371    4.9704 C.3     1  UNL1        0.0000
     34 H           5.5595    3.3487    4.4703 H       1  UNL1        0.0000
     35 H           6.6972    2.0383    4.2284 H       1  UNL1        0.0000
     36 H           6.7536    2.9838    5.6973 H       1  UNL1        0.0000
     37 C           3.6233    0.6898    4.4849 C.3     1  UNL1        0.0000
     38 H           2.8037    0.1405    4.9661 H       1  UNL1        0.0000
     39 H           4.0954    0.0296    3.7627 H       1  UNL1        0.0000
     40 H           3.2113    1.5402    3.9379 H       1  UNL1        0.0000
     41 C           5.9215   -0.1921    6.3914 C.3     1  UNL1        0.0000
     42 H           6.6787    0.1015    7.1114 H       1  UNL1        0.0000
     43 H           6.4336   -0.6573    5.5550 H       1  UNL1        0.0000
     44 H           5.3023   -0.9514    6.8611 H       1  UNL1        0.0000
@<TRIPOS>BOND
     1    39    37    1
     2    40    37    1
     3    35    33    1
     4    34    33    1
     5    37    38    1
     6    37     2    1
     7    33    36    1
     8    33     2    1
     9    43    41    1
    10     2    41    1
    11     2     4    1
    12    41    44    1
    13    41    42    1
    14    30    29    1
    15     4    19    1
    16    29    32    1
    17    29    31    1
    18    29     1    1
    19    20    19    1
    20    19    16    1
    21    19     5    1
    22    18    16    1
    23     3     1    1
    24     3     5    1
    25    28    25    1
    26    16    17    1
    27    16    13    1
    28     1    25    1
    29     1    21    1
    30     5     6    1
    31     5     7    1
    32    25    27    1
    33    25    26    1
    34    15    13    1
    35     8     7    1
    36    13    14    1
    37    13    10    1
    38     7     9    1
    39     7    10    1
    40    22    21    1
    41    21    23    1
    42    21    24    1
    43    10    12    1
    44    10    11    1
