@<TRIPOS>MOLECULE
1,3
 42 45 0 0 0
SMALL
GASTEIGER

@<TRIPOS>ATOM
      1 N           5.0246    5.1103   18.0642 N.3     1  UNL1       -0.1206
      2 N           5.0479    6.2073   18.7463 N.3     1  UNL1       -0.0387
      3 N           5.5227    7.2133   18.0854 N.3     1  UNL1       -0.1186
      4 C           4.5506    3.9703   18.8249 C.3     1  UNL1        0.0590
      5 H           3.6214    3.5994   18.3754 H       1  UNL1        0.0506
      6 H           4.3356    4.2942   19.8536 H       1  UNL1        0.0506
      7 C           5.5817    2.8723   18.8400 C.ar    1  UNL1       -0.0304
      8 C           5.2316    1.5498   18.6009 C.ar    1  UNL1       -0.0572
      9 H           4.1971    1.2960   18.4122 H       1  UNL1        0.0621
     10 C           6.1931    0.5534   18.6133 C.ar    1  UNL1       -0.0615
     11 H           5.9075   -0.4722   18.4269 H       1  UNL1        0.0618
     12 C           7.5177    0.8689   18.8619 C.ar    1  UNL1       -0.0617
     13 H           8.2688    0.0923   18.8689 H       1  UNL1        0.0618
     14 C           7.8746    2.1852   19.1064 C.ar    1  UNL1       -0.0615
     15 H           8.9064    2.4347   19.3111 H       1  UNL1        0.0618
     16 C           6.9128    3.1797   19.0969 C.ar    1  UNL1       -0.0572
     17 H           7.1883    4.2064   19.2935 H       1  UNL1        0.0621
     18 C           5.5092    8.4698   18.8332 C.3     1  UNL1        0.0572
     19 C           6.4042    9.4718   18.0996 C.3     1  UNL1       -0.0287
     20 H           6.0356    9.6055   17.0788 H       1  UNL1        0.0287
     21 H           7.4220    9.0737   18.0484 H       1  UNL1        0.0287
     22 C           6.3958   10.8104   18.8360 C.3     1  UNL1       -0.0388
     23 H           7.0392   11.5205   18.3028 H       1  UNL1        0.0302
     24 C           6.9205   10.6156   20.2577 C.3     1  UNL1       -0.0472
     25 H           6.9317   11.5725   20.7849 H       1  UNL1        0.0271
     26 H           7.9448   10.2372   20.2268 H       1  UNL1        0.0271
     27 C           6.0220    9.6240   20.9954 C.3     1  UNL1       -0.0388
     28 H           6.3971    9.4809   22.0153 H       1  UNL1        0.0302
     29 C           6.0311    8.2833   20.2642 C.3     1  UNL1       -0.0287
     30 H           5.3997    7.5610   20.7835 H       1  UNL1        0.0287
     31 H           7.0459    7.8798   20.2285 H       1  UNL1        0.0287
     32 C           4.0772    9.0229   18.8944 C.3     1  UNL1       -0.0287
     33 H           3.4412    8.3018   19.4128 H       1  UNL1        0.0287
     34 H           3.6897    9.1421   17.8787 H       1  UNL1        0.0287
     35 C           4.0729   10.3628   19.6273 C.3     1  UNL1       -0.0388
     36 H           3.0486   10.7518   19.6634 H       1  UNL1        0.0302
     37 C           4.5950   10.1679   21.0500 C.3     1  UNL1       -0.0472
     38 H           4.5796   11.1201   21.5856 H       1  UNL1        0.0271
     39 H           3.9518    9.4691   21.5889 H       1  UNL1        0.0271
     40 C           4.9692   11.3557   18.8885 C.3     1  UNL1       -0.0472
     41 H           4.5934   11.5136   17.8749 H       1  UNL1        0.0271
     42 H           4.9583   12.3199   19.4023 H       1  UNL1        0.0271
@<TRIPOS>BOND
     1    20    19    1
     2    41    40    1
     3    34    32    1
     4    21    19    1
     5     1     2    1
     6     1     4    1
     7     3     2    1
     8     3    18    1
     9    19    18    1
    10    19    22    1
    11    23    22    1
    12     5     4    1
    13     9     8    1
    14    11    10    1
    15     8    10   ar
    16     8     7   ar
    17    10    12   ar
    18     4     7    1
    19     4     6    1
    20    18    32    1
    21    18    29    1
    22    22    40    1
    23    22    24    1
    24     7    16   ar
    25    12    13    1
    26    12    14   ar
    27    40    42    1
    28    40    35    1
    29    32    33    1
    30    32    35    1
    31    16    14   ar
    32    16    17    1
    33    14    15    1
    34    35    36    1
    35    35    37    1
    36    26    24    1
    37    31    29    1
    38    24    25    1
    39    24    27    1
    40    29    30    1
    41    29    27    1
    42    27    37    1
    43    27    28    1
    44    37    38    1
    45    37    39    1
