@<TRIPOS>MOLECULE
26,63
 76 79 0 0 0
SMALL
GASTEIGER

@<TRIPOS>ATOM
      1 C          12.2958    5.6281   -3.5981 C.3     1  UNL1        0.0000
      2 H          12.5244    5.4773   -4.6650 H       1  UNL1        0.0000
      3 P          13.7042    6.3260   -2.7750 P.3     1  UNL1        0.0000
      4 C          15.1322    5.2985   -3.2768 C.ar    1  UNL1        0.0000
      5 C          16.4247    5.7751   -3.0849 C.ar    1  UNL1        0.0000
      6 H          16.5676    6.7893   -2.7404 H       1  UNL1        0.0000
      7 C          17.5133    4.9666   -3.3520 C.ar    1  UNL1        0.0000
      8 H          18.5142    5.3461   -3.2065 H       1  UNL1        0.0000
      9 C          17.3221    3.6726   -3.8117 C.ar    1  UNL1        0.0000
     10 H          18.1734    3.0441   -4.0269 H       1  UNL1        0.0000
     11 C          16.0384    3.1902   -3.9987 C.ar    1  UNL1        0.0000
     12 H          15.8877    2.1837   -4.3630 H       1  UNL1        0.0000
     13 C          14.9477    3.9967   -3.7229 C.ar    1  UNL1        0.0000
     14 H          13.9441    3.6229   -3.8638 H       1  UNL1        0.0000
     15 C          14.1978    7.9706   -3.3871 C.ar    1  UNL1        0.0000
     16 C          13.8642    9.1160   -2.6790 C.ar    1  UNL1        0.0000
     17 H          13.3303    9.0190   -1.7456 H       1  UNL1        0.0000
     18 C          14.2274   10.3596   -3.1632 C.ar    1  UNL1        0.0000
     19 H          13.9795   11.2484   -2.6018 H       1  UNL1        0.0000
     20 C          14.9091   10.4644   -4.3640 C.ar    1  UNL1        0.0000
     21 H          15.1984   11.4352   -4.7381 H       1  UNL1        0.0000
     22 C          15.2154    9.3241   -5.0898 C.ar    1  UNL1        0.0000
     23 H          15.7376    9.4056   -6.0320 H       1  UNL1        0.0000
     24 C          14.8570    8.0803   -4.6069 C.ar    1  UNL1        0.0000
     25 H          15.0957    7.1864   -5.1686 H       1  UNL1        0.0000
     26 N          13.4610    6.2252   -1.2060 N.3     1  UNL1        0.0000
     27 SI         14.2512    7.0454    0.1203 Si      1  UNL1        0.0000
     28 C          14.7142    5.7343    1.4344 C.3     1  UNL1        0.0000
     29 H          14.0407    4.8847    1.4281 H       1  UNL1        0.0000
     30 H          14.6651    6.1771    2.4234 H       1  UNL1        0.0000
     31 H          15.7274    5.3678    1.2914 H       1  UNL1        0.0000
     32 C          15.8962    7.9385   -0.2641 C.3     1  UNL1        0.0000
     33 H          15.8286    8.6090   -1.1143 H       1  UNL1        0.0000
     34 H          16.6975    7.2313   -0.4535 H       1  UNL1        0.0000
     35 H          16.1859    8.5295    0.5984 H       1  UNL1        0.0000
     36 C          13.0065    8.3325    0.8083 C.3     1  UNL1        0.0000
     37 H          12.0599    8.2937    0.2729 H       1  UNL1        0.0000
     38 H          13.3930    9.3465    0.7401 H       1  UNL1        0.0000
     39 H          12.7904    8.1369    1.8538 H       1  UNL1        0.0000
     40 P          10.9036    6.7261   -3.4443 P.3     1  UNL1        0.0000
     41 C           9.6460    6.0217   -4.5634 C.ar    1  UNL1        0.0000
     42 C           9.0955    6.6383   -5.6791 C.ar    1  UNL1        0.0000
     43 H           9.4357    7.6167   -5.9879 H       1  UNL1        0.0000
     44 C           8.0969    5.9998   -6.3944 C.ar    1  UNL1        0.0000
     45 H           7.6717    6.4832   -7.2622 H       1  UNL1        0.0000
     46 C           7.6371    4.7531   -6.0014 C.ar    1  UNL1        0.0000
     47 H           6.8561    4.2647   -6.5650 H       1  UNL1        0.0000
     48 C           8.1737    4.1377   -4.8819 C.ar    1  UNL1        0.0000
     49 H           7.8250    3.1667   -4.5625 H       1  UNL1        0.0000
     50 C           9.1715    4.7752   -4.1687 C.ar    1  UNL1        0.0000
     51 H           9.5916    4.3058   -3.2853 H       1  UNL1        0.0000
     52 C          11.1856    8.4000   -4.1137 C.ar    1  UNL1        0.0000
     53 C          10.9108    9.5269   -3.3534 C.ar    1  UNL1        0.0000
     54 H          10.5508    9.4004   -2.3436 H       1  UNL1        0.0000
     55 C          11.0947   10.7884   -3.8900 C.ar    1  UNL1        0.0000
     56 H          10.8664   11.6632   -3.2990 H       1  UNL1        0.0000
     57 C          11.5706   10.9284   -5.1827 C.ar    1  UNL1        0.0000
     58 H          11.7115   11.9127   -5.6040 H       1  UNL1        0.0000
     59 C          11.8754    9.8055   -5.9357 C.ar    1  UNL1        0.0000
     60 H          12.2596    9.9145   -6.9396 H       1  UNL1        0.0000
     61 C          11.6850    8.5444   -5.4041 C.ar    1  UNL1        0.0000
     62 H          11.9238    7.6642   -5.9877 H       1  UNL1        0.0000
     63 N          10.4243    6.7219   -1.9244 N.3     1  UNL1        0.0000
     64 SI          8.8414    7.3015   -1.4374 Si      1  UNL1        0.0000
     65 C           7.8198    5.8094   -0.8165 C.3     1  UNL1        0.0000
     66 H           8.0608    5.5695    0.2146 H       1  UNL1        0.0000
     67 H           7.9779    4.9198   -1.4236 H       1  UNL1        0.0000
     68 H           6.7598    6.0416   -0.8495 H       1  UNL1        0.0000
     69 C           9.0384    8.5636   -0.0131 C.3     1  UNL1        0.0000
     70 H           9.5809    8.1407    0.8262 H       1  UNL1        0.0000
     71 H           8.0527    8.8373    0.3473 H       1  UNL1        0.0000
     72 H           9.5411    9.4805   -0.3073 H       1  UNL1        0.0000
     73 C           7.8262    8.1015   -2.8452 C.3     1  UNL1        0.0000
     74 H           7.3188    7.3455   -3.4369 H       1  UNL1        0.0000
     75 H           8.4401    8.6888   -3.5204 H       1  UNL1        0.0000
     76 H           7.0673    8.7578   -2.4331 H       1  UNL1        0.0000
@<TRIPOS>BOND
     1    45    44    1
     2    60    59    1
     3    47    46    1
     4    44    46   ar
     5    44    42   ar
     6    23    22    1
     7    46    48   ar
     8    43    42    1
     9    62    61    1
    10    59    61   ar
    11    59    57   ar
    12    42    41   ar
    13    58    57    1
    14    61    52   ar
    15    57    55   ar
    16    25    24    1
    17    22    24   ar
    18    22    20   ar
    19    48    49    1
    20    48    50   ar
    21    21    20    1
    22     2     1    1
    23    24    15   ar
    24    41    50   ar
    25    41    40    1
    26    20    18   ar
    27    12    11    1
    28    50    51    1
    29    52    40    1
    30    52    53   ar
    31    10     9    1
    32    11     9   ar
    33    11    13   ar
    34    55    53   ar
    35    55    56    1
    36    14    13    1
    37     9     7   ar
    38    13     4   ar
    39     1    40    1
    40     1     3    1
    41    75    73    1
    42    40    63    1
    43    74    73    1
    44    15     3    1
    45    15    16   ar
    46    53    54    1
    47     7     8    1
    48     7     5   ar
    49     4     5   ar
    50     4     3    1
    51    18    16   ar
    52    18    19    1
    53     5     6    1
    54    73    76    1
    55    73    64    1
    56     3    26    1
    57    16    17    1
    58    63    64    1
    59    64    65    1
    60    64    69    1
    61    67    65    1
    62    26    27    1
    63    33    32    1
    64    68    65    1
    65    65    66    1
    66    34    32    1
    67    72    69    1
    68    32    27    1
    69    32    35    1
    70    69    71    1
    71    69    70    1
    72    27    36    1
    73    27    28    1
    74    37    36    1
    75    38    36    1
    76    36    39    1
    77    31    28    1
    78    29    28    1
    79    28    30    1
