@<TRIPOS>MOLECULE
1,2
 26 27 0 0 0
SMALL
GASTEIGER

@<TRIPOS>ATOM
      1 N           6.1562    3.8432    1.9593 N.pl3   1  UNL1       -0.2231
      2 N           4.3601    5.1984    2.2699 N.pl3   1  UNL1       -0.2231
      3 C           5.4189    4.8598    1.5677 C.3     1  UNL1        0.1621
      4 H           5.6883    5.4222    0.6620 H       1  UNL1        0.0778
      5 C           3.7117    6.3930    1.9361 C.ar    1  UNL1        0.0501
      6 C           4.4223    7.5524    1.6122 C.ar    1  UNL1       -0.0391
      7 H           5.5039    7.5333    1.6125 H       1  UNL1        0.0637
      8 C           3.7526    8.7267    1.3240 C.ar    1  UNL1       -0.0600
      9 H           4.3165    9.6157    1.0796 H       1  UNL1        0.0618
     10 C           2.3693    8.7713    1.3548 C.ar    1  UNL1       -0.0616
     11 H           1.8510    9.6921    1.1335 H       1  UNL1        0.0618
     12 C           1.6574    7.6257    1.6740 C.ar    1  UNL1       -0.0600
     13 H           0.5777    7.6473    1.6963 H       1  UNL1        0.0618
     14 C           2.3171    6.4473    1.9611 C.ar    1  UNL1       -0.0391
     15 H           1.7678    5.5500    2.1978 H       1  UNL1        0.0637
     16 C           7.1875    3.4476    1.0924 C.ar    1  UNL1        0.0501
     17 C           8.4552    3.1667    1.6002 C.ar    1  UNL1       -0.0391
     18 H           8.6315    3.2805    2.6563 H       1  UNL1        0.0637
     19 C           9.4721    2.7527    0.7631 C.ar    1  UNL1       -0.0600
     20 H          10.4454    2.5375    1.1793 H       1  UNL1        0.0618
     21 C           9.2524    2.6169   -0.5977 C.ar    1  UNL1       -0.0616
     22 H          10.0480    2.2891   -1.2498 H       1  UNL1        0.0618
     23 C           8.0017    2.9076   -1.1152 C.ar    1  UNL1       -0.0600
     24 H           7.8178    2.8074   -2.1754 H       1  UNL1        0.0618
     25 C           6.9783    3.3223   -0.2839 C.ar    1  UNL1       -0.0391
     26 H           6.0009    3.5274   -0.6963 H       1  UNL1        0.0637
@<TRIPOS>BOND
     1    24    23    1
     2    22    21    1
     3    23    21   ar
     4    23    25   ar
     5    26    25    1
     6    21    19   ar
     7    25    16   ar
     8     4     3    1
     9    19    20    1
    10    19    17   ar
    11     9     8    1
    12    16    17   ar
    13    16     1    1
    14    11    10    1
    15     8    10   ar
    16     8     6   ar
    17    10    12   ar
    18     3     1    1
    19     3     2    1
    20    17    18    1
    21     6     7    1
    22     6     5   ar
    23    12    13    1
    24    12    14   ar
    25     5    14   ar
    26     5     2    1
    27    14    15    1
