@<TRIPOS>MOLECULE
1,2
 58 58 0 0 0
SMALL
GASTEIGER

@<TRIPOS>ATOM
      1 N           6.2165    2.4788    4.9639 N.pl3   1  UNL1       -0.2371
      2 N           4.6708    4.9011    5.4947 N.pl3   1  UNL1       -0.2542
      3 N           5.3925    8.5222    5.9325 N.3     1  UNL1       -0.3068
      4 C           6.4364    1.0549    6.9690 C.3     1  UNL1       -0.0359
      5 H           6.9008    0.3436    6.2913 H       1  UNL1        0.0255
      6 H           5.6491    0.5559    7.5292 H       1  UNL1        0.0255
      7 H           7.1932    1.3927    7.6765 H       1  UNL1        0.0255
      8 C           5.8520    2.2336    6.2184 C.3     1  UNL1        0.0968
      9 C           5.0013    3.0451    6.9692 C.2     1  UNL1       -0.0387
     10 H           4.7714    2.6697    7.9555 H       1  UNL1        0.0610
     11 C           4.5509    4.3437    6.6882 C.2     1  UNL1        0.0204
     12 C           3.9681    5.0920    7.8689 C.3     1  UNL1       -0.0253
     13 H           4.5432    5.9908    8.0844 H       1  UNL1        0.0290
     14 H           3.9718    4.4613    8.7527 H       1  UNL1        0.0290
     15 H           2.9392    5.3851    7.6664 H       1  UNL1        0.0290
     16 C           4.3887    6.3296    5.3769 C.3     1  UNL1        0.0437
     17 H           3.6620    6.6769    6.1166 H       1  UNL1        0.0494
     18 H           3.9814    6.5229    4.3806 H       1  UNL1        0.0494
     19 C           5.6781    7.1464    5.5674 C.3     1  UNL1        0.0157
     20 H           6.2472    6.6968    6.3869 H       1  UNL1        0.0442
     21 H           6.2942    7.0780    4.6510 H       1  UNL1        0.0442
     22 C           4.7838    9.2637    4.8460 C.3     1  UNL1       -0.0130
     23 H           5.4322    9.3183    3.9583 H       1  UNL1        0.0391
     24 H           4.5735   10.2765    5.1860 H       1  UNL1        0.0391
     25 H           3.8453    8.7965    4.5574 H       1  UNL1        0.0391
     26 C           6.5841    9.1956    6.4081 C.3     1  UNL1       -0.0130
     27 H           7.3714    9.2630    5.6408 H       1  UNL1        0.0391
     28 H           6.9826    8.6595    7.2685 H       1  UNL1        0.0391
     29 H           6.3195   10.2041    6.7219 H       1  UNL1        0.0391
     30 C           7.4266    1.8714    4.5318 C.ar    1  UNL1        0.0557
     31 C           8.6403    2.3831    5.0377 C.ar    1  UNL1       -0.0219
     32 C           9.8346    1.8051    4.6368 C.ar    1  UNL1       -0.0565
     33 H          10.7705    2.1925    5.0068 H       1  UNL1        0.0621
     34 C           9.8496    0.7295    3.7676 C.ar    1  UNL1       -0.0611
     35 H          10.7879    0.2787    3.4804 H       1  UNL1        0.0618
     36 C           8.6615    0.2413    3.2642 C.ar    1  UNL1       -0.0565
     37 H           8.6834   -0.5952    2.5832 H       1  UNL1        0.0621
     38 C           7.4423    0.8010    3.6248 C.ar    1  UNL1       -0.0219
     39 C           6.1631    0.2243    3.0613 C.3     1  UNL1       -0.0197
     40 H           5.3339    0.9136    3.3074 H       1  UNL1        0.0344
     41 C           6.2252    0.0781    1.5393 C.3     1  UNL1       -0.0586
     42 H           6.4744    1.0273    1.0724 H       1  UNL1        0.0235
     43 H           5.2607   -0.2560    1.1658 H       1  UNL1        0.0235
     44 H           6.9709   -0.6559    1.2431 H       1  UNL1        0.0235
     45 C           5.8666   -1.1378    3.6964 C.3     1  UNL1       -0.0586
     46 H           6.6807   -1.8334    3.5009 H       1  UNL1        0.0235
     47 H           4.9494   -1.5497    3.2813 H       1  UNL1        0.0235
     48 H           5.7422   -1.0468    4.7728 H       1  UNL1        0.0235
     49 C           8.6370    3.6066    5.9318 C.3     1  UNL1       -0.0197
     50 H           7.7270    3.5988    6.5381 H       1  UNL1        0.0344
     51 C           9.8284    3.6710    6.8874 C.3     1  UNL1       -0.0586
     52 H           9.9553    2.7258    7.4107 H       1  UNL1        0.0235
     53 H           9.6619    4.4523    7.6264 H       1  UNL1        0.0235
     54 H          10.7498    3.9052    6.3597 H       1  UNL1        0.0235
     55 C           8.5887    4.8608    5.0510 C.3     1  UNL1       -0.0586
     56 H           9.4538    4.8962    4.3906 H       1  UNL1        0.0235
     57 H           8.5913    5.7561    5.6696 H       1  UNL1        0.0235
     58 H           7.6769    4.8553    4.4454 H       1  UNL1        0.0235
@<TRIPOS>BOND
     1    42    41    1
     2    43    41    1
     3    44    41    1
     4    41    39    1
     5    37    36    1
     6    39    40    1
     7    39    38    1
     8    39    45    1
     9    36    38   ar
    10    36    34   ar
    11    47    45    1
    12    35    34    1
    13    46    45    1
    14    38    30   ar
    15    45    48    1
    16    34    32   ar
    17    23    22    1
    18    18    16    1
    19    56    55    1
    20    58    55    1
    21    30     1    1
    22    30    31   ar
    23    25    22    1
    24    32    33    1
    25    32    31   ar
    26    21    19    1
    27    22    24    1
    28    22     3    1
    29     1     8    1
    30    31    49    1
    31    55    57    1
    32    55    49    1
    33    16     2    1
    34    16    19    1
    35    16    17    1
    36     2    11    1
    37    19     3    1
    38    19    20    1
    39    27    26    1
    40    49    50    1
    41    49    51    1
    42     3    26    1
    43     8     4    1
    44     8     9    1
    45     5     4    1
    46    54    51    1
    47    26    29    1
    48    26    28    1
    49    11     9    2
    50    11    12    1
    51    51    52    1
    52    51    53    1
    53     4     6    1
    54     4     7    1
    55     9    10    1
    56    15    12    1
    57    12    13    1
    58    12    14    1
