@<TRIPOS>MOLECULE
1,4
 32 32 0 0 0
SMALL
GASTEIGER

@<TRIPOS>ATOM
      1 N           0.9730   10.5598   17.8284 N.pl3   1  UNL1       -0.0418
      2 N          -1.0770    9.9610   16.8334 N.2     1  UNL1       -0.0582
      3 N          -1.0234    9.6075   14.4093 N.pl3   1  UNL1       -0.2985
      4 N           2.3784    9.4862   15.9121 N.pl3   1  UNL1       -0.2455
      5 C           0.3237   11.3079   18.9002 C.3     1  UNL1        0.1360
      6 C          -0.5898   12.4041   18.3300 C.3     1  UNL1       -0.0195
      7 H          -1.3941   11.9423   17.7656 H       1  UNL1        0.0273
      8 H          -0.0211   13.0543   17.6681 H       1  UNL1        0.0273
      9 H          -1.0097   12.9987   19.1379 H       1  UNL1        0.0273
     10 C          -0.4865   10.3593   19.7948 C.3     1  UNL1       -0.0195
     11 H          -1.2657    9.8944   19.1965 H       1  UNL1        0.0273
     12 H          -0.9425   10.9033   20.6196 H       1  UNL1        0.0273
     13 H           0.1753    9.5872   20.1868 H       1  UNL1        0.0273
     14 C           1.4312   11.9766   19.7254 C.3     1  UNL1       -0.0195
     15 H           1.9878   12.6725   19.0986 H       1  UNL1        0.0273
     16 H           2.1157   11.2154   20.1024 H       1  UNL1        0.0273
     17 H           0.9977   12.5186   20.5648 H       1  UNL1        0.0273
     18 C           0.2174   10.0077   16.8518 C.2     1  UNL1        0.3721
     19 C          -1.6532    9.3130   15.6865 C.3     1  UNL1        0.1988
     20 H          -1.5954    8.2158   15.8177 H       1  UNL1        0.1011
     21 H          -2.7089    9.5956   15.6362 H       1  UNL1        0.1011
     22 C           0.3775    9.5489   14.4846 C.2     1  UNL1        0.0258
     23 H           0.8720    9.4917   13.5233 H       1  UNL1        0.0803
     24 C           1.0261    9.5866   15.6727 C.2     1  UNL1        0.1556
     25 C           3.2410    9.5663   14.7553 C.3     1  UNL1        0.0203
     26 H           4.2847    9.5458   15.0795 H       1  UNL1        0.0446
     27 H           3.0666   10.4998   14.1996 H       1  UNL1        0.0446
     28 H           3.0702    8.7330   14.0524 H       1  UNL1        0.0446
     29 C          -1.5397   10.7612   13.6977 C.3     1  UNL1        0.0038
     30 H          -2.6044   10.6168   13.5132 H       1  UNL1        0.0429
     31 H          -1.0225   10.8396   12.7414 H       1  UNL1        0.0429
     32 H          -1.3984   11.6995   14.2506 H       1  UNL1        0.0429
@<TRIPOS>BOND
     1    31    29    1
     2    30    29    1
     3    23    22    1
     4    29    32    1
     5    29     3    1
     6    28    25    1
     7    27    25    1
     8     3    22    1
     9     3    19    1
    10    22    24    2
    11    25    26    1
    12    25     4    1
    13    21    19    1
    14    24     4    1
    15    24    18    1
    16    19    20    1
    17    19     2    1
    18     2    18    2
    19    18     1    1
    20     8     6    1
    21     7     6    1
    22     1     5    1
    23     6     5    1
    24     6     9    1
    25     5    14    1
    26     5    10    1
    27    15    14    1
    28    11    10    1
    29    14    16    1
    30    14    17    1
    31    10    13    1
    32    10    12    1
