@<TRIPOS>MOLECULE
6,7
 31 30 0 0 0
SMALL
GASTEIGER

@<TRIPOS>ATOM
      1 SI          5.4290    5.3473    4.0188 Si      1  UNL1        0.0000
      2 H           4.0152    4.8377    4.0230 H       1  UNL1        0.0000
      3 SI          7.9653    4.4290    2.4900 Si      1  UNL1        0.0000
      4 SI         10.0937    2.3274    3.1060 Si      1  UNL1        0.0000
      5 H          10.1380    0.8321    3.1623 H       1  UNL1        0.0000
      6 N           6.3576    4.2092    3.1596 N.3     1  UNL1        0.0000
      7 N           8.5025    2.7716    2.6814 N.3     1  UNL1        0.0000
      8 C           5.9210    5.6172    5.8473 C.3     1  UNL1        0.0000
      9 H           5.9483    4.6780    6.3920 H       1  UNL1        0.0000
     10 H           5.2212    6.2733    6.3562 H       1  UNL1        0.0000
     11 H           6.9060    6.0681    5.9216 H       1  UNL1        0.0000
     12 C           5.3665    7.0686    3.2005 C.3     1  UNL1        0.0000
     13 H           6.3143    7.5854    3.3023 H       1  UNL1        0.0000
     14 H           4.6016    7.6935    3.6504 H       1  UNL1        0.0000
     15 H           5.1496    6.9889    2.1406 H       1  UNL1        0.0000
     16 C           9.0148    5.7883    3.3151 C.3     1  UNL1        0.0000
     17 H           8.6073    6.7711    3.1055 H       1  UNL1        0.0000
     18 H          10.0332    5.7654    2.9435 H       1  UNL1        0.0000
     19 H           9.0484    5.6619    4.3914 H       1  UNL1        0.0000
     20 C           7.8568    4.8497    0.6201 C.3     1  UNL1        0.0000
     21 H           7.4009    4.0401    0.0578 H       1  UNL1        0.0000
     22 H           8.8462    5.0200    0.2098 H       1  UNL1        0.0000
     23 H           7.2690    5.7464    0.4559 H       1  UNL1        0.0000
     24 C          10.7328    2.9592    4.7951 C.3     1  UNL1        0.0000
     25 H          11.0804    3.9852    4.7275 H       1  UNL1        0.0000
     26 H          11.5610    2.3583    5.1597 H       1  UNL1        0.0000
     27 H           9.9466    2.9281    5.5436 H       1  UNL1        0.0000
     28 C          11.3719    2.8699    1.7969 C.3     1  UNL1        0.0000
     29 H          11.1188    2.4773    0.8176 H       1  UNL1        0.0000
     30 H          12.3688    2.5220    2.0474 H       1  UNL1        0.0000
     31 H          11.4091    3.9508    1.7138 H       1  UNL1        0.0000
@<TRIPOS>BOND
     1    21    20    1
     2    22    20    1
     3    23    20    1
     4    20     3    1
     5    29    28    1
     6    31    28    1
     7    28    30    1
     8    28     4    1
     9    15    12    1
    10     3     7    1
    11     3     6    1
    12     3    16    1
    13     7     4    1
    14    18    16    1
    15    17    16    1
    16     4     5    1
    17     4    24    1
    18     6     1    1
    19    12    13    1
    20    12    14    1
    21    12     1    1
    22    16    19    1
    23     1     2    1
    24     1     8    1
    25    25    24    1
    26    24    26    1
    27    24    27    1
    28     8    11    1
    29     8    10    1
    30     8     9    1
