@<TRIPOS>MOLECULE
1,2
 20 21 0 0 0
SMALL
GASTEIGER

@<TRIPOS>ATOM
      1 N          24.3100    3.2762   28.3796 N.pl3   1  UNL1       -0.2427
      2 N          26.8298    3.3109   27.4405 N.pl3   1  UNL1       -0.2387
      3 C          23.0951    3.2421   28.9167 C.3     1  UNL1        0.0844
      4 H          22.7389    2.2598   29.1984 H       1  UNL1        0.0584
      5 C          22.3030    4.3643   29.0824 C.2     1  UNL1       -0.0600
      6 H          21.3234    4.2830   29.5260 H       1  UNL1        0.0592
      7 C          22.7978    5.5903   28.6567 C.2     1  UNL1       -0.0623
      8 H          22.2187    6.4935   28.7775 H       1  UNL1        0.0616
      9 C          24.0418    5.6312   28.0578 C.2     1  UNL1       -0.0408
     10 H          24.4384    6.5725   27.7161 H       1  UNL1        0.0634
     11 C          24.7762    4.4517   27.9176 C.2     1  UNL1        0.0578
     12 C          26.0893    4.4209   27.2601 C.3     1  UNL1        0.1419
     13 C          26.5566    5.4818   26.4772 C.2     1  UNL1       -0.0507
     14 H          25.9371    6.3443   26.2948 H       1  UNL1        0.0598
     15 C          27.8167    5.4114   25.9177 C.2     1  UNL1       -0.0620
     16 H          28.1900    6.2209   25.3080 H       1  UNL1        0.0616
     17 C          28.5918    4.2835   26.1542 C.2     1  UNL1       -0.0466
     18 H          29.5873    4.1950   25.7499 H       1  UNL1        0.0630
     19 C          28.0476    3.2582   26.9104 C.2     1  UNL1        0.0129
     20 H          28.6005    2.3476   27.1084 H       1  UNL1        0.0798
@<TRIPOS>BOND
     1    16    15    1
     2    18    17    1
     3    15    17    1
     4    15    13    2
     5    17    19    2
     6    14    13    1
     7    13    12    1
     8    19    20    1
     9    19     2    1
    10    12     2    1
    11    12    11    1
    12    10     9    1
    13    11     9    2
    14    11     1    1
    15     9     7    1
    16     1     3    1
    17     7     8    1
    18     7     5    2
    19     3     5    1
    20     3     4    1
    21     5     6    1
