@<TRIPOS>MOLECULE
2,3
 36 36 0 0 0
SMALL
GASTEIGER

@<TRIPOS>ATOM
      1 SI         -0.1669    2.0078    1.9302 Si      1  UNL1        0.0000
      2 N          -1.3092    1.1904    2.8854 N.pl3   1  UNL1        0.0000
      3 N           0.2648    3.1516    3.2786 N.3     1  UNL1        0.0000
      4 C          -1.9290   -0.0150    2.5413 C.ar    1  UNL1        0.0000
      5 C          -3.1817   -0.0148    1.9046 C.ar    1  UNL1        0.0000
      6 C          -3.7922   -1.2160    1.5774 C.ar    1  UNL1        0.0000
      7 H          -4.7563   -1.1991    1.0882 H       1  UNL1        0.0000
      8 C          -3.1789   -2.4240    1.8525 C.ar    1  UNL1        0.0000
      9 H          -3.6618   -3.3534    1.5891 H       1  UNL1        0.0000
     10 C          -1.9366   -2.4275    2.4598 C.ar    1  UNL1        0.0000
     11 H          -1.4434   -3.3659    2.6708 H       1  UNL1        0.0000
     12 C          -1.3029   -1.2450    2.8069 C.ar    1  UNL1        0.0000
     13 C          -3.8411    1.2807    1.5282 C.3     1  UNL1        0.0000
     14 H          -4.9231    1.2114    1.6336 H       1  UNL1        0.0000
     15 H          -3.6245    1.5117    0.4845 H       1  UNL1        0.0000
     16 H          -3.4554    2.1021    2.1374 H       1  UNL1        0.0000
     17 C           0.0548   -1.2932    3.4391 C.3     1  UNL1        0.0000
     18 H           0.1632   -2.1925    4.0401 H       1  UNL1        0.0000
     19 H           0.2028   -0.4247    4.0789 H       1  UNL1        0.0000
     20 H           0.8263   -1.2989    2.6706 H       1  UNL1        0.0000
     21 C           1.4136    1.1097    1.3071 C.3     1  UNL1        0.0000
     22 H           2.0597    1.7846    0.7534 H       1  UNL1        0.0000
     23 H           1.1306    0.3104    0.6313 H       1  UNL1        0.0000
     24 H           2.0012    0.6702    2.1054 H       1  UNL1        0.0000
     25 C          -0.7719    2.9592    0.3754 C.3     1  UNL1        0.0000
     26 H           0.0085    3.5795   -0.0556 H       1  UNL1        0.0000
     27 H          -1.6247    3.5960    0.5881 H       1  UNL1        0.0000
     28 H          -1.0755    2.2489   -0.3877 H       1  UNL1        0.0000
     29 C           1.3417    2.6527    4.1298 C.3     1  UNL1        0.0000
     30 H           2.3045    2.6708    3.5991 H       1  UNL1        0.0000
     31 H           1.1291    1.6217    4.4298 H       1  UNL1        0.0000
     32 H           1.4432    3.2819    5.0223 H       1  UNL1        0.0000
     33 C           0.5766    4.5178    2.8769 C.3     1  UNL1        0.0000
     34 H           1.5276    4.5634    2.3293 H       1  UNL1        0.0000
     35 H           0.6590    5.1656    3.7559 H       1  UNL1        0.0000
     36 H          -0.2114    4.9071    2.2351 H       1  UNL1        0.0000
@<TRIPOS>BOND
     1    28    25    1
     2    26    25    1
     3    25    27    1
     4    25     1    1
     5    15    13    1
     6    23    21    1
     7    22    21    1
     8     7     6    1
     9    21     1    1
    10    21    24    1
    11    13    14    1
    12    13     5    1
    13    13    16    1
    14     6     8   ar
    15     6     5   ar
    16     9     8    1
    17     8    10   ar
    18     5     4   ar
    19     1     2    1
    20     1     3    1
    21    36    33    1
    22    34    33    1
    23    10    11    1
    24    10    12   ar
    25     4    12   ar
    26     4     2    1
    27    20    17    1
    28    12    17    1
    29    33     3    1
    30    33    35    1
    31     3    29    1
    32    17    18    1
    33    17    19    1
    34    30    29    1
    35    29    31    1
    36    29    32    1
