@<TRIPOS>MOLECULE
2,3
 36 36 0 0 0
SMALL
GASTEIGER

@<TRIPOS>ATOM
      1 SI         -3.3859    2.0080    6.7613 Si      1  UNL1        0.0000
      2 N          -2.2437    1.1906    5.8060 N.pl3   1  UNL1        0.0000
      3 N          -3.8177    3.1519    5.4129 N.3     1  UNL1        0.0000
      4 C          -1.6239   -0.0148    6.1500 C.ar    1  UNL1        0.0000
      5 C          -0.3713   -0.0146    6.7867 C.ar    1  UNL1        0.0000
      6 C           0.2393   -1.2158    7.1140 C.ar    1  UNL1        0.0000
      7 H           1.2033   -1.1989    7.6033 H       1  UNL1        0.0000
      8 C          -0.3740   -2.4238    6.8387 C.ar    1  UNL1        0.0000
      9 H           0.1088   -3.3533    7.1021 H       1  UNL1        0.0000
     10 C          -1.6162   -2.4273    6.2312 C.ar    1  UNL1        0.0000
     11 H          -2.1094   -3.3657    6.0202 H       1  UNL1        0.0000
     12 C          -2.2499   -1.2448    5.8842 C.ar    1  UNL1        0.0000
     13 C           0.2882    1.2809    7.1633 C.3     1  UNL1        0.0000
     14 H           1.3701    1.2115    7.0579 H       1  UNL1        0.0000
     15 H           0.0716    1.5117    8.2071 H       1  UNL1        0.0000
     16 H          -0.0976    2.1024    6.5543 H       1  UNL1        0.0000
     17 C          -3.6076   -1.2929    5.2519 C.3     1  UNL1        0.0000
     18 H          -3.7160   -2.1920    4.6507 H       1  UNL1        0.0000
     19 H          -3.7556   -0.4242    4.6124 H       1  UNL1        0.0000
     20 H          -4.3792   -1.2989    6.0204 H       1  UNL1        0.0000
     21 C          -4.9665    1.1098    7.3843 C.3     1  UNL1        0.0000
     22 H          -5.6125    1.7846    7.9381 H       1  UNL1        0.0000
     23 H          -4.6833    0.3104    8.0600 H       1  UNL1        0.0000
     24 H          -5.5540    0.6704    6.5860 H       1  UNL1        0.0000
     25 C          -2.7812    2.9596    8.3161 C.3     1  UNL1        0.0000
     26 H          -3.5617    3.5797    8.7470 H       1  UNL1        0.0000
     27 H          -1.9287    3.5966    8.1034 H       1  UNL1        0.0000
     28 H          -2.4773    2.2495    9.0791 H       1  UNL1        0.0000
     29 C          -4.8947    2.6530    4.5618 C.3     1  UNL1        0.0000
     30 H          -5.8574    2.6711    5.0925 H       1  UNL1        0.0000
     31 H          -4.6820    1.6221    4.2615 H       1  UNL1        0.0000
     32 H          -4.9963    3.2824    3.6694 H       1  UNL1        0.0000
     33 C          -4.1295    4.5181    5.8145 C.3     1  UNL1        0.0000
     34 H          -5.0804    4.5637    6.3622 H       1  UNL1        0.0000
     35 H          -4.2118    5.1659    4.9356 H       1  UNL1        0.0000
     36 H          -3.3414    4.9074    6.4564 H       1  UNL1        0.0000
@<TRIPOS>BOND
     1    32    29    1
     2    31    29    1
     3    29    30    1
     4    29     3    1
     5    19    17    1
     6    18    17    1
     7    35    33    1
     8    17    12    1
     9    17    20    1
    10     3    33    1
    11     3     1    1
    12     2     4    1
    13     2     1    1
    14    33    34    1
    15    33    36    1
    16    12     4   ar
    17    12    10   ar
    18    11    10    1
    19     4     5   ar
    20    10     8   ar
    21    16    13    1
    22    24    21    1
    23     1    21    1
    24     1    25    1
    25     5     6   ar
    26     5    13    1
    27     8     9    1
    28     8     6   ar
    29    14    13    1
    30     6     7    1
    31    13    15    1
    32    21    22    1
    33    21    23    1
    34    27    25    1
    35    25    26    1
    36    25    28    1
