@<TRIPOS>MOLECULE
2,24
 44 44 0 0 0
SMALL
GASTEIGER

@<TRIPOS>ATOM
      1 SI         19.9134    2.4166   12.9821 Si      1  UNL1        0.0000
      2 N          18.8486    2.6659   11.6625 N.3     1  UNL1        0.0000
      3 C          18.7041    3.9072   10.9349 C.3     1  UNL1        0.0000
      4 C          18.7573    5.1594   11.8156 C.3     1  UNL1        0.0000
      5 C          18.6689    6.4211   10.9630 C.3     1  UNL1        0.0000
      6 C          20.0750    0.5075   13.1274 C.3     1  UNL1        0.0000
      7 C          21.6558    3.1977   12.7718 C.3     1  UNL1        0.0000
      8 C          19.2459    3.0326   14.6819 C.3     1  UNL1        0.0000
      9 H          19.5241    3.9819   10.1887 H       1  UNL1        0.0000
     10 H          17.9276    5.1224   12.5260 H       1  UNL1        0.0000
     11 H          19.6897    5.1603   12.3796 H       1  UNL1        0.0000
     12 H          19.5371    6.4655   10.3013 H       1  UNL1        0.0000
     13 H          18.6921    7.3044   11.6050 H       1  UNL1        0.0000
     14 H          21.1050    0.2211   13.3097 H       1  UNL1        0.0000
     15 H          19.7400    0.0072   12.2161 H       1  UNL1        0.0000
     16 H          19.4892    0.1274   13.9590 H       1  UNL1        0.0000
     17 H          21.9093    3.3088   11.7219 H       1  UNL1        0.0000
     18 H          21.7116    4.1795   13.2324 H       1  UNL1        0.0000
     19 H          22.4241    2.5846   13.2314 H       1  UNL1        0.0000
     20 H          19.1142    4.1098   14.7062 H       1  UNL1        0.0000
     21 H          18.2889    2.5806   14.9288 H       1  UNL1        0.0000
     22 H          19.9396    2.7727   15.4757 H       1  UNL1        0.0000
     23 C          17.3593    3.9072   10.1537 C.3     1  UNL1        0.0000
     24 N          17.2148    2.6659    9.4261 N.3     1  UNL1        0.0000
     25 SI         16.1501    2.4166    8.1065 Si      1  UNL1        0.0000
     26 C          15.9884    0.5075    7.9612 C.3     1  UNL1        0.0000
     27 H          14.9582    0.2211    7.7791 H       1  UNL1        0.0000
     28 H          16.3237    0.0072    8.8725 H       1  UNL1        0.0000
     29 H          16.5740    0.1274    7.1293 H       1  UNL1        0.0000
     30 C          14.4076    3.1977    8.3168 C.3     1  UNL1        0.0000
     31 H          14.1541    3.3088    9.3667 H       1  UNL1        0.0000
     32 H          14.3518    4.1795    7.8562 H       1  UNL1        0.0000
     33 H          13.6393    2.5846    7.8572 H       1  UNL1        0.0000
     34 C          16.8175    3.0326    6.4067 C.3     1  UNL1        0.0000
     35 H          16.9492    4.1098    6.3824 H       1  UNL1        0.0000
     36 H          17.7745    2.5806    6.1598 H       1  UNL1        0.0000
     37 H          16.1237    2.7726    5.6129 H       1  UNL1        0.0000
     38 C          17.3060    5.1594    9.2729 C.3     1  UNL1        0.0000
     39 C          17.3945    6.4211   10.1256 C.3     1  UNL1        0.0000
     40 H          16.5263    6.4655   10.7873 H       1  UNL1        0.0000
     41 H          17.3713    7.3044    9.4836 H       1  UNL1        0.0000
     42 H          18.1358    5.1224    8.5626 H       1  UNL1        0.0000
     43 H          16.3737    5.1603    8.7090 H       1  UNL1        0.0000
     44 H          16.5393    3.9819   10.8999 H       1  UNL1        0.0000
@<TRIPOS>BOND
     1    37    34    1
     2    36    34    1
     3    35    34    1
     4    34    25    1
     5    29    26    1
     6    27    26    1
     7    32    30    1
     8    33    30    1
     9    26    25    1
    10    26    28    1
    11    25    30    1
    12    25    24    1
    13    30    31    1
    14    42    38    1
    15    43    38    1
    16    38    39    1
    17    38    23    1
    18    24    23    1
    19    41    39    1
    20    39    40    1
    21    39     5    1
    22    23    44    1
    23    23     3    1
    24     9     3    1
    25    12     5    1
    26     3     2    1
    27     3     4    1
    28     5    13    1
    29     5     4    1
    30     2     1    1
    31    17     7    1
    32     4    11    1
    33     4    10    1
    34    15     6    1
    35     7     1    1
    36     7    19    1
    37     7    18    1
    38     1     6    1
    39     1     8    1
    40     6    14    1
    41     6    16    1
    42     8    20    1
    43     8    21    1
    44     8    22    1
