@<TRIPOS>MOLECULE
1,2
 40 40 0 0 0
SMALL
GASTEIGER

@<TRIPOS>ATOM
      1 N          12.7603   10.0653    9.9605 N.3     1  UNL1        0.0000
      2 N          10.5582   10.3880    9.8312 N.3     1  UNL1        0.0000
      3 SI         14.3284    9.3868   10.1618 Si      1  UNL1        0.0000
      4 SI          8.8971    9.9820    9.5892 Si      1  UNL1        0.0000
      5 C          11.5611    9.5730   10.1052 C.3     1  UNL1        0.0000
      6 C          11.3245    8.1830   10.5745 C.ar    1  UNL1        0.0000
      7 C          10.8808    7.9616   11.8724 C.ar    1  UNL1        0.0000
      8 C          10.6706    6.6718   12.3266 C.ar    1  UNL1        0.0000
      9 C          10.8939    5.5939   11.4867 C.ar    1  UNL1        0.0000
     10 C          11.3364    5.8091   10.1923 C.ar    1  UNL1        0.0000
     11 C          11.5568    7.0974    9.7394 C.ar    1  UNL1        0.0000
     12 C          14.4420    7.9664   11.4392 C.3     1  UNL1        0.0000
     13 C          15.4464   10.8141   10.7603 C.3     1  UNL1        0.0000
     14 C          14.9491    8.7536    8.4637 C.3     1  UNL1        0.0000
     15 C           8.6577    8.4101    8.5127 C.3     1  UNL1        0.0000
     16 C           8.1737   11.4716    8.6370 C.3     1  UNL1        0.0000
     17 C           7.9470    9.7003   11.2299 C.3     1  UNL1        0.0000
     18 H          10.7102    8.8053   12.5261 H       1  UNL1        0.0000
     19 H          10.3316    6.5064   13.3390 H       1  UNL1        0.0000
     20 H          10.7267    4.5874   11.8407 H       1  UNL1        0.0000
     21 H          11.5137    4.9701    9.5350 H       1  UNL1        0.0000
     22 H          11.9076    7.2622    8.7306 H       1  UNL1        0.0000
     23 H          15.4793    7.7666   11.6857 H       1  UNL1        0.0000
     24 H          13.9271    8.2164   12.3620 H       1  UNL1        0.0000
     25 H          14.0092    7.0446   11.0652 H       1  UNL1        0.0000
     26 H          16.4745   10.4808   10.8598 H       1  UNL1        0.0000
     27 H          15.1319   11.2080   11.7244 H       1  UNL1        0.0000
     28 H          15.4320   11.6310   10.0445 H       1  UNL1        0.0000
     29 H          15.9973    8.4778    8.5175 H       1  UNL1        0.0000
     30 H          14.8546    9.5336    7.7124 H       1  UNL1        0.0000
     31 H          14.4009    7.8802    8.1184 H       1  UNL1        0.0000
     32 H           7.6191    8.3060    8.2155 H       1  UNL1        0.0000
     33 H           8.9347    7.5088    9.0505 H       1  UNL1        0.0000
     34 H           9.2555    8.4521    7.6052 H       1  UNL1        0.0000
     35 H           7.2007   11.7565    9.0221 H       1  UNL1        0.0000
     36 H           8.8427   12.3268    8.7267 H       1  UNL1        0.0000
     37 H           8.0503   11.2488    7.5807 H       1  UNL1        0.0000
     38 H           6.8784    9.6770   11.0434 H       1  UNL1        0.0000
     39 H           8.1355   10.4897   11.9512 H       1  UNL1        0.0000
     40 H           8.2175    8.7544   11.6897 H       1  UNL1        0.0000
@<TRIPOS>BOND
     1    37    16    1
     2    34    15    1
     3    30    14    1
     4    31    14    1
     5    32    15    1
     6    14    29    1
     7    14     3    1
     8    15    33    1
     9    15     4    1
    10    16    36    1
    11    16    35    1
    12    16     4    1
    13    22    11    1
    14    21    10    1
    15     4     2    1
    16     4    17    1
    17    11    10   ar
    18    11     6   ar
    19     2     5    1
    20     1     5    1
    21     1     3    1
    22    28    13    1
    23     5     6    1
    24     3    13    1
    25     3    12    1
    26    10     9   ar
    27     6     7   ar
    28    13    26    1
    29    13    27    1
    30    38    17    1
    31    25    12    1
    32    17    40    1
    33    17    39    1
    34    12    23    1
    35    12    24    1
    36     9    20    1
    37     9     8   ar
    38     7     8   ar
    39     7    18    1
    40     8    19    1
