@<TRIPOS>MOLECULE
1,2
 70 70 0 0 0
SMALL
GASTEIGER

@<TRIPOS>ATOM
      1 N           9.5076   -0.7362    2.4072 N.pl3   1  UNL1       -0.2371
      2 N          12.3402   -1.3447    2.7750 N.pl3   1  UNL1       -0.2542
      3 N          13.9779   -3.7843    5.0642 N.3     1  UNL1       -0.2960
      4 C           8.7063   -1.2289    0.1278 C.3     1  UNL1       -0.0359
      5 H           7.7254   -1.3236    0.5879 H       1  UNL1        0.0255
      6 H           8.8803   -2.0798   -0.5267 H       1  UNL1        0.0255
      7 H           8.7149   -0.3286   -0.4864 H       1  UNL1        0.0255
      8 C           9.7952   -1.1155    1.1721 C.3     1  UNL1        0.0968
      9 C          11.0793   -1.4585    0.7427 C.2     1  UNL1       -0.0387
     10 H          11.1541   -1.7015   -0.3074 H       1  UNL1        0.0610
     11 C          12.2382   -1.6827    1.5013 C.2     1  UNL1        0.0204
     12 C          13.3687   -2.3745    0.7683 C.3     1  UNL1       -0.0253
     13 H          14.2905   -1.8001    0.8546 H       1  UNL1        0.0290
     14 H          13.1286   -2.4760   -0.2857 H       1  UNL1        0.0290
     15 H          13.5434   -3.3699    1.1738 H       1  UNL1        0.0290
     16 C          13.4315   -1.9036    3.5622 C.3     1  UNL1        0.0438
     17 H          13.7038   -1.1982    4.3586 H       1  UNL1        0.0494
     18 H          14.3331   -2.0972    2.9722 H       1  UNL1        0.0494
     19 C          12.9522   -3.2167    4.2286 C.3     1  UNL1        0.0168
     20 H          12.0697   -2.9745    4.8248 H       1  UNL1        0.0443
     21 H          12.6325   -3.9108    3.4366 H       1  UNL1        0.0443
     22 C          14.8777   -4.7153    4.4116 C.3     1  UNL1        0.0051
     23 H          14.9059   -4.4114    3.3584 H       1  UNL1        0.0457
     24 C          16.3018   -4.5742    4.9571 C.3     1  UNL1       -0.0497
     25 H          16.5897   -3.5264    4.9680 H       1  UNL1        0.0245
     26 H          16.9970   -5.1234    4.3268 H       1  UNL1        0.0245
     27 H          16.3806   -4.9646    5.9681 H       1  UNL1        0.0245
     28 C          14.4242   -6.1820    4.4631 C.3     1  UNL1       -0.0497
     29 H          14.4329   -6.5547    5.4842 H       1  UNL1        0.0245
     30 H          15.0925   -6.7987    3.8667 H       1  UNL1        0.0245
     31 H          13.4170   -6.2813    4.0637 H       1  UNL1        0.0245
     32 C          13.6728   -3.9740    6.4710 C.3     1  UNL1        0.0051
     33 H          14.4680   -4.6062    6.8763 H       1  UNL1        0.0457
     34 C          12.3279   -4.6569    6.7651 C.3     1  UNL1       -0.0497
     35 H          11.4971   -3.9729    6.6100 H       1  UNL1        0.0245
     36 H          12.3049   -4.9776    7.8042 H       1  UNL1        0.0245
     37 H          12.1870   -5.5289    6.1321 H       1  UNL1        0.0245
     38 C          13.7340   -2.6255    7.1942 C.3     1  UNL1       -0.0497
     39 H          14.6882   -2.1401    7.0036 H       1  UNL1        0.0245
     40 H          13.6163   -2.7629    8.2666 H       1  UNL1        0.0245
     41 H          12.9331   -1.9751    6.8489 H       1  UNL1        0.0245
     42 C           8.1576   -0.6969    2.8456 C.ar    1  UNL1        0.0557
     43 C           7.3490    0.4384    2.6629 C.ar    1  UNL1       -0.0219
     44 C           6.0687    0.4385    3.2012 C.ar    1  UNL1       -0.0565
     45 H           5.4388    1.3062    3.0708 H       1  UNL1        0.0621
     46 C           5.5791   -0.6581    3.8832 C.ar    1  UNL1       -0.0611
     47 H           4.5791   -0.6408    4.2915 H       1  UNL1        0.0618
     48 C           6.3659   -1.7863    4.0265 C.ar    1  UNL1       -0.0565
     49 H           5.9646   -2.6454    4.5401 H       1  UNL1        0.0621
     50 C           7.6547   -1.8287    3.5181 C.ar    1  UNL1       -0.0219
     51 C           8.5013   -3.0782    3.6388 C.3     1  UNL1       -0.0197
     52 H           9.5593   -2.7770    3.5875 H       1  UNL1        0.0344
     53 C           8.2888   -3.8221    4.9568 C.3     1  UNL1       -0.0586
     54 H           8.3781   -3.1396    5.7975 H       1  UNL1        0.0235
     55 H           9.0473   -4.5945    5.0645 H       1  UNL1        0.0235
     56 H           7.3141   -4.3036    4.9903 H       1  UNL1        0.0235
     57 C           8.2121   -4.0174    2.4632 C.3     1  UNL1       -0.0586
     58 H           7.1543   -4.2736    2.4354 H       1  UNL1        0.0235
     59 H           8.7871   -4.9349    2.5699 H       1  UNL1        0.0235
     60 H           8.4817   -3.5522    1.5196 H       1  UNL1        0.0235
     61 C           7.8292    1.6429    1.8818 C.3     1  UNL1       -0.0197
     62 H           8.8311    1.4321    1.4872 H       1  UNL1        0.0344
     63 C           7.9422    2.8786    2.7785 C.3     1  UNL1       -0.0586
     64 H           6.9789    3.1391    3.2111 H       1  UNL1        0.0235
     65 H           8.2992    3.7231    2.1936 H       1  UNL1        0.0235
     66 H           8.6543    2.6957    3.5850 H       1  UNL1        0.0235
     67 C           6.8969    1.9408    0.7034 C.3     1  UNL1       -0.0586
     68 H           6.7359    1.0523    0.0977 H       1  UNL1        0.0235
     69 H           7.3335    2.7141    0.0753 H       1  UNL1        0.0235
     70 H           5.9289    2.2931    1.0516 H       1  UNL1        0.0235
@<TRIPOS>BOND
     1     6     4    1
     2     7     4    1
     3    10     9    1
     4    14    12    1
     5    69    67    1
     6    68    67    1
     7     4     5    1
     8     4     8    1
     9    67    70    1
    10    67    61    1
    11     9     8    1
    12     9    11    2
    13    12    13    1
    14    12    15    1
    15    12    11    1
    16     8     1    1
    17    62    61    1
    18    11     2    1
    19    60    57    1
    20    61    43    1
    21    61    63    1
    22    65    63    1
    23     1    42    1
    24    58    57    1
    25    57    59    1
    26    57    51    1
    27    43    42   ar
    28    43    44   ar
    29     2    16    1
    30    63    64    1
    31    63    66    1
    32    42    50   ar
    33    18    16    1
    34    45    44    1
    35    44    46   ar
    36    23    22    1
    37    21    19    1
    38    50    51    1
    39    50    48   ar
    40    16    19    1
    41    16    17    1
    42    52    51    1
    43    51    53    1
    44    30    28    1
    45    46    48   ar
    46    46    47    1
    47    48    49    1
    48    31    28    1
    49    19    20    1
    50    19     3    1
    51    26    24    1
    52    22    28    1
    53    22    24    1
    54    22     3    1
    55    28    29    1
    56    53    56    1
    57    53    55    1
    58    53    54    1
    59    24    25    1
    60    24    27    1
    61     3    32    1
    62    37    34    1
    63    32    34    1
    64    32    33    1
    65    32    38    1
    66    35    34    1
    67    34    36    1
    68    41    38    1
    69    39    38    1
    70    38    40    1
