@<TRIPOS>MOLECULE
1,2
 70 70 0 0 0
SMALL
GASTEIGER

@<TRIPOS>ATOM
      1 N         -11.6864   -0.1169   -4.5175 N.pl3   1  UNL1       -0.2371
      2 N          -9.7434   -1.2390   -2.6040 N.pl3   1  UNL1       -0.2542
      3 N         -10.4321   -3.1566    0.4441 N.3     1  UNL1       -0.2960
      4 C         -12.2287   -1.7738   -6.2639 C.3     1  UNL1       -0.0359
      5 H         -12.8031   -2.6179   -5.8809 H       1  UNL1        0.0255
      6 H         -11.6145   -2.1369   -7.0850 H       1  UNL1        0.0255
      7 H         -12.9279   -1.0284   -6.6330 H       1  UNL1        0.0255
      8 C         -11.3592   -1.2224   -5.1540 C.3     1  UNL1        0.0968
      9 C         -10.2456   -2.0076   -4.8193 C.2     1  UNL1       -0.0387
     10 H         -10.0066   -2.7802   -5.5370 H       1  UNL1        0.0610
     11 C          -9.5200   -2.0576   -3.6242 C.2     1  UNL1        0.0204
     12 C          -8.5067   -3.1836   -3.5464 C.3     1  UNL1       -0.0253
     13 H          -7.5927   -2.8524   -3.0571 H       1  UNL1        0.0290
     14 H          -8.2539   -3.5169   -4.5491 H       1  UNL1        0.0290
     15 H          -8.9052   -4.0356   -2.9992 H       1  UNL1        0.0290
     16 C          -9.3537   -1.6629   -1.2613 C.3     1  UNL1        0.0438
     17 H          -8.8215   -0.8426   -0.7669 H       1  UNL1        0.0494
     18 H          -8.7025   -2.5392   -1.2637 H       1  UNL1        0.0494
     19 C         -10.6356   -2.0487   -0.4757 C.3     1  UNL1        0.0168
     20 H         -11.0315   -1.1711    0.0511 H       1  UNL1        0.0443
     21 H         -11.3752   -2.3283   -1.2289 H       1  UNL1        0.0443
     22 C         -11.2889   -4.3096    0.1848 C.3     1  UNL1        0.0051
     23 H         -11.0315   -5.0615    0.9332 H       1  UNL1        0.0457
     24 C         -10.9557   -4.9329   -1.1719 C.3     1  UNL1       -0.0497
     25 H         -11.2172   -4.2781   -1.9993 H       1  UNL1        0.0245
     26 H         -11.5052   -5.8643   -1.2892 H       1  UNL1        0.0245
     27 H          -9.8918   -5.1514   -1.2178 H       1  UNL1        0.0245
     28 C         -12.7958   -4.0273    0.2972 C.3     1  UNL1       -0.0497
     29 H         -13.0260   -3.5557    1.2502 H       1  UNL1        0.0245
     30 H         -13.3514   -4.9598    0.2332 H       1  UNL1        0.0245
     31 H         -13.1363   -3.3739   -0.5027 H       1  UNL1        0.0245
     32 C         -10.3275   -2.7225    1.8375 C.3     1  UNL1        0.0051
     33 H         -11.2058   -2.1052    2.1188 H       1  UNL1        0.0457
     34 C          -9.0718   -1.8619    1.9982 C.3     1  UNL1       -0.0497
     35 H          -8.2027   -2.4161    1.6553 H       1  UNL1        0.0245
     36 H          -8.9309   -1.5984    3.0438 H       1  UNL1        0.0245
     37 H          -9.1430   -0.9414    1.4301 H       1  UNL1        0.0245
     38 C         -10.2351   -3.8807    2.8319 C.3     1  UNL1       -0.0497
     39 H         -11.1738   -4.4203    2.9248 H       1  UNL1        0.0245
     40 H          -9.9885   -3.4824    3.8133 H       1  UNL1        0.0245
     41 H          -9.4491   -4.5709    2.5363 H       1  UNL1        0.0245
     42 C         -12.9210    0.5149   -4.8228 C.ar    1  UNL1        0.0557
     43 C         -14.0747    0.1074   -4.1306 C.ar    1  UNL1       -0.0219
     44 C         -15.2910    0.6900   -4.4463 C.ar    1  UNL1       -0.0565
     45 H         -16.1854    0.3940   -3.9216 H       1  UNL1        0.0621
     46 C         -15.3795    1.6463   -5.4412 C.ar    1  UNL1       -0.0611
     47 H         -16.3382    2.0739   -5.6955 H       1  UNL1        0.0618
     48 C         -14.2379    2.0687   -6.0922 C.ar    1  UNL1       -0.0565
     49 H         -14.3181    2.8301   -6.8522 H       1  UNL1        0.0621
     50 C         -12.9939    1.5313   -5.7876 C.ar    1  UNL1       -0.0219
     51 C         -11.7504    2.0501   -6.4768 C.3     1  UNL1       -0.0197
     52 H         -10.8728    1.7385   -5.8823 H       1  UNL1        0.0344
     53 C         -11.7517    3.5796   -6.5437 C.3     1  UNL1       -0.0586
     54 H         -12.5032    3.9472   -7.2389 H       1  UNL1        0.0235
     55 H         -10.7809    3.9333   -6.8842 H       1  UNL1        0.0235
     56 H         -11.9537    3.9965   -5.5595 H       1  UNL1        0.0235
     57 C         -11.6130    1.4720   -7.8887 C.3     1  UNL1       -0.0586
     58 H         -11.4774    0.3944   -7.8591 H       1  UNL1        0.0235
     59 H         -10.7499    1.9105   -8.3852 H       1  UNL1        0.0235
     60 H         -12.5009    1.6935   -8.4790 H       1  UNL1        0.0235
     61 C         -13.9393   -0.8847   -2.9954 C.3     1  UNL1       -0.0197
     62 H         -13.1594   -1.6096   -3.2598 H       1  UNL1        0.0344
     63 C         -13.4733   -0.1095   -1.7568 C.3     1  UNL1       -0.0586
     64 H         -12.4910    0.3441   -1.9523 H       1  UNL1        0.0235
     65 H         -13.3980   -0.7686   -0.8939 H       1  UNL1        0.0235
     66 H         -14.1789    0.6869   -1.5268 H       1  UNL1        0.0235
     67 C         -15.2205   -1.6590   -2.6911 C.3     1  UNL1       -0.0586
     68 H         -15.9739   -1.0133   -2.2467 H       1  UNL1        0.0235
     69 H         -15.0101   -2.4587   -1.9830 H       1  UNL1        0.0235
     70 H         -15.6282   -2.1032   -3.5965 H       1  UNL1        0.0235
@<TRIPOS>BOND
     1    60    57    1
     2    59    57    1
     3    57    58    1
     4    57    51    1
     5    54    53    1
     6     6     4    1
     7    55    53    1
     8    49    48    1
     9     7     4    1
    10    53    51    1
    11    53    56    1
    12    51    52    1
    13    51    50    1
    14     4     5    1
    15     4     8    1
    16    48    50   ar
    17    48    46   ar
    18    50    42   ar
    19    47    46    1
    20    10     9    1
    21    46    44   ar
    22     8     9    1
    23     8     1    1
    24    42     1    1
    25    42    43   ar
    26     9    11    2
    27    14    12    1
    28    44    43   ar
    29    44    45    1
    30    43    61    1
    31    11    12    1
    32    11     2    1
    33    70    67    1
    34    12    13    1
    35    12    15    1
    36    62    61    1
    37    61    67    1
    38    61    63    1
    39    67    68    1
    40    67    69    1
    41     2    16    1
    42    25    24    1
    43    64    63    1
    44    63    66    1
    45    63    65    1
    46    26    24    1
    47    18    16    1
    48    16    17    1
    49    16    19    1
    50    21    19    1
    51    27    24    1
    52    24    22    1
    53    31    28    1
    54    19    20    1
    55    19     3    1
    56    22    28    1
    57    22     3    1
    58    22    23    1
    59    30    28    1
    60    28    29    1
    61     3    32    1
    62    37    34    1
    63    35    34    1
    64    32    34    1
    65    32    33    1
    66    32    38    1
    67    34    36    1
    68    41    38    1
    69    38    39    1
    70    38    40    1
