@<TRIPOS>MOLECULE
5,6
 76 79 0 0 0
SMALL
GASTEIGER

@<TRIPOS>ATOM
      1 P           3.8037   18.8678   13.7905 P.3     1  UNL1        0.0000
      2 P           4.0743   18.9293   16.8441 P.3     1  UNL1        0.0000
      3 SI          5.6579   17.9006   11.6364 Si      1  UNL1        0.0000
      4 SI          6.0125   17.7560   18.7917 Si      1  UNL1        0.0000
      5 N           4.9732   17.8854   13.2447 N.3     1  UNL1        0.0000
      6 N           5.3027   17.9550   17.2100 N.3     1  UNL1        0.0000
      7 C           3.1448   18.5813   15.3902 C.3     1  UNL1        0.0000
      8 H           2.7215   17.5717   15.4633 H       1  UNL1        0.0000
      9 C           2.3599   18.7674   12.6748 C.ar    1  UNL1        0.0000
     10 C           1.2316   18.0308   13.0129 C.ar    1  UNL1        0.0000
     11 H           1.1551   17.5751   13.9885 H       1  UNL1        0.0000
     12 C           0.1867   17.8974   12.1150 C.ar    1  UNL1        0.0000
     13 H          -0.6828   17.3168   12.3874 H       1  UNL1        0.0000
     14 C           0.2515   18.5084   10.8746 C.ar    1  UNL1        0.0000
     15 H          -0.5650   18.4053   10.1753 H       1  UNL1        0.0000
     16 C           1.3653   19.2601   10.5365 C.ar    1  UNL1        0.0000
     17 H           1.4169   19.7495    9.5745 H       1  UNL1        0.0000
     18 C           2.4138   19.3828   11.4290 C.ar    1  UNL1        0.0000
     19 H           3.2819   19.9695   11.1673 H       1  UNL1        0.0000
     20 C           4.3110   20.6056   13.6757 C.ar    1  UNL1        0.0000
     21 C           3.3619   21.6091   13.5213 C.ar    1  UNL1        0.0000
     22 H           2.3123   21.3498   13.5055 H       1  UNL1        0.0000
     23 C           3.7673   22.9235   13.3862 C.ar    1  UNL1        0.0000
     24 H           3.0315   23.7036   13.2553 H       1  UNL1        0.0000
     25 C           5.1165   23.2394   13.4146 C.ar    1  UNL1        0.0000
     26 H           5.4304   24.2667   13.3017 H       1  UNL1        0.0000
     27 C           6.0614   22.2426   13.5916 C.ar    1  UNL1        0.0000
     28 H           7.1119   22.4891   13.6266 H       1  UNL1        0.0000
     29 C           5.6615   20.9246   13.7210 C.ar    1  UNL1        0.0000
     30 H           6.3940   20.1375   13.8558 H       1  UNL1        0.0000
     31 C           4.5951   20.6652   16.7905 C.ar    1  UNL1        0.0000
     32 C           3.6488   21.6818   16.7201 C.ar    1  UNL1        0.0000
     33 H           2.6009   21.4243   16.6477 H       1  UNL1        0.0000
     34 C           4.0590   23.0013   16.7402 C.ar    1  UNL1        0.0000
     35 H           3.3272   23.7946   16.6917 H       1  UNL1        0.0000
     36 C           5.4086   23.3072   16.8262 C.ar    1  UNL1        0.0000
     37 H           5.7237   24.3402   16.8501 H       1  UNL1        0.0000
     38 C           6.3520   22.2945   16.8726 C.ar    1  UNL1        0.0000
     39 H           7.4036   22.5341   16.9226 H       1  UNL1        0.0000
     40 C           5.9473   20.9716   16.8532 C.ar    1  UNL1        0.0000
     41 H           6.6713   20.1673   16.8747 H       1  UNL1        0.0000
     42 C           2.8477   18.8332   18.1879 C.ar    1  UNL1        0.0000
     43 C           2.1481   17.6365   18.3021 C.ar    1  UNL1        0.0000
     44 H           2.3200   16.8490   17.5786 H       1  UNL1        0.0000
     45 C           1.2629   17.4372   19.3439 C.ar    1  UNL1        0.0000
     46 H           0.7269   16.5029   19.4257 H       1  UNL1        0.0000
     47 C           1.0758   18.4327   20.2898 C.ar    1  UNL1        0.0000
     48 H           0.3873   18.2798   21.1078 H       1  UNL1        0.0000
     49 C           1.7810   19.6202   20.1909 C.ar    1  UNL1        0.0000
     50 H           1.6441   20.3931   20.9335 H       1  UNL1        0.0000
     51 C           2.6674   19.8209   19.1467 C.ar    1  UNL1        0.0000
     52 H           3.2169   20.7493   19.0770 H       1  UNL1        0.0000
     53 C           4.5008   16.9408   10.4493 C.3     1  UNL1        0.0000
     54 H           3.9823   16.1366   10.9629 H       1  UNL1        0.0000
     55 H           5.0709   16.5100    9.6330 H       1  UNL1        0.0000
     56 H           3.7456   17.5883   10.0168 H       1  UNL1        0.0000
     57 C           7.3312   16.9875   11.7983 C.3     1  UNL1        0.0000
     58 H           7.9203   17.3703   12.6331 H       1  UNL1        0.0000
     59 H           7.9167   17.1474   10.8981 H       1  UNL1        0.0000
     60 H           7.2110   15.9132   11.9088 H       1  UNL1        0.0000
     61 C           6.1021   19.5869   10.8416 C.3     1  UNL1        0.0000
     62 H           5.3469   20.3517   10.9884 H       1  UNL1        0.0000
     63 H           6.2417   19.4614    9.7720 H       1  UNL1        0.0000
     64 H           7.0308   19.9727   11.2507 H       1  UNL1        0.0000
     65 C           4.8837   16.7193   19.9369 C.3     1  UNL1        0.0000
     66 H           4.1450   17.3388   20.4354 H       1  UNL1        0.0000
     67 H           5.4727   16.2270   20.7034 H       1  UNL1        0.0000
     68 H           4.3519   15.9504   19.3846 H       1  UNL1        0.0000
     69 C           6.4160   19.3841   19.7124 C.3     1  UNL1        0.0000
     70 H           7.2792   19.8885   19.2912 H       1  UNL1        0.0000
     71 H           6.6319   19.1777   20.7554 H       1  UNL1        0.0000
     72 H           5.5789   20.0745   19.6772 H       1  UNL1        0.0000
     73 C           7.6175   16.7940   18.4234 C.3     1  UNL1        0.0000
     74 H           7.3886   15.8214   17.9931 H       1  UNL1        0.0000
     75 H           8.1873   16.6240   19.3308 H       1  UNL1        0.0000
     76 H           8.2629   17.3261   17.7268 H       1  UNL1        0.0000
@<TRIPOS>BOND
     1    17    16    1
     2    55    53    1
     3    63    61    1
     4    56    53    1
     5    15    14    1
     6    53    54    1
     7    53     3    1
     8    16    14   ar
     9    16    18   ar
    10    61    62    1
    11    61    64    1
    12    61     3    1
    13    14    12   ar
    14    59    57    1
    15    19    18    1
    16    18     9   ar
    17     3    57    1
    18     3     5    1
    19    57    60    1
    20    57    58    1
    21    12    13    1
    22    12    10   ar
    23     9    10   ar
    24     9     1    1
    25    10    11    1
    26     5     1    1
    27    24    23    1
    28    26    25    1
    29    23    25   ar
    30    23    21   ar
    31    25    27   ar
    32    22    21    1
    33    21    20   ar
    34    27    28    1
    35    27    29   ar
    36    20    29   ar
    37    20     1    1
    38    29    30    1
    39     1     7    1
    40     7     8    1
    41     7     2    1
    42    33    32    1
    43    35    34    1
    44    32    34   ar
    45    32    31   ar
    46    34    36   ar
    47    31     2    1
    48    31    40   ar
    49    36    37    1
    50    36    38   ar
    51     2     6    1
    52     2    42    1
    53    40    38   ar
    54    40    41    1
    55    38    39    1
    56     6     4    1
    57    44    43    1
    58    76    73    1
    59    74    73    1
    60    42    43   ar
    61    42    51   ar
    62    43    45   ar
    63    73     4    1
    64    73    75    1
    65     4    69    1
    66     4    65    1
    67    52    51    1
    68    51    49   ar
    69    70    69    1
    70    45    46    1
    71    45    47   ar
    72    68    65    1
    73    72    69    1
    74    69    71    1
    75    65    66    1
    76    65    67    1
    77    49    47   ar
    78    49    50    1
    79    47    48    1
