@<TRIPOS>MOLECULE
3,4
 51 52 0 0 0
SMALL
GASTEIGER

@<TRIPOS>ATOM
      1 SI          2.4339    9.7603    1.7403 Si      1  UNL1        0.0000
      2 SI         -1.0247   11.9661    5.8355 Si      1  UNL1        0.0000
      3 N           1.6781   10.6913    2.9972 N.3     1  UNL1        0.0000
      4 N           0.3145   11.6783    4.7661 N.3     1  UNL1        0.0000
      5 P           1.1186   10.3149    4.4615 P.3     1  UNL1        0.0000
      6 C           4.3044   10.1589    1.8130 C.3     1  UNL1        0.0000
      7 C           2.1135    7.8823    1.9485 C.3     1  UNL1        0.0000
      8 C           1.6423   10.2874    0.0870 C.3     1  UNL1        0.0000
      9 C          -1.2924   10.4305    6.9444 C.3     1  UNL1        0.0000
     10 C          -0.5987   13.4669    6.9465 C.3     1  UNL1        0.0000
     11 C          -2.5690   12.3102    4.7683 C.3     1  UNL1        0.0000
     12 C           0.0744    8.8334    4.4266 C.ar    1  UNL1        0.0000
     13 C           0.2313    7.7408    5.2662 C.ar    1  UNL1        0.0000
     14 C          -0.6341    6.6655    5.1554 C.ar    1  UNL1        0.0000
     15 C          -1.6511    6.6849    4.2149 C.ar    1  UNL1        0.0000
     16 C          -1.8089    7.7798    3.3776 C.ar    1  UNL1        0.0000
     17 C          -0.9455    8.8547    3.4810 C.ar    1  UNL1        0.0000
     18 C           2.4604   10.0451    5.6665 C.ar    1  UNL1        0.0000
     19 C           3.4157    9.0574    5.4595 C.ar    1  UNL1        0.0000
     20 C           4.4619    8.9083    6.3522 C.ar    1  UNL1        0.0000
     21 C           4.5610    9.7473    7.4511 C.ar    1  UNL1        0.0000
     22 C           3.6165   10.7406    7.6535 C.ar    1  UNL1        0.0000
     23 C           2.5698   10.8923    6.7610 C.ar    1  UNL1        0.0000
     24 H           4.8420    9.6727    1.0059 H       1  UNL1        0.0000
     25 H           4.7560    9.8500    2.7524 H       1  UNL1        0.0000
     26 H           4.4510   11.2320    1.7149 H       1  UNL1        0.0000
     27 H           2.3103    7.5212    2.9527 H       1  UNL1        0.0000
     28 H           2.7482    7.3244    1.2686 H       1  UNL1        0.0000
     29 H           1.0828    7.6326    1.7154 H       1  UNL1        0.0000
     30 H           1.8273   11.3402   -0.1115 H       1  UNL1        0.0000
     31 H           0.5636   10.1427    0.0965 H       1  UNL1        0.0000
     32 H           2.0497    9.7171   -0.7417 H       1  UNL1        0.0000
     33 H          -1.8652   10.6932    7.8267 H       1  UNL1        0.0000
     34 H          -0.3470   10.0084    7.2743 H       1  UNL1        0.0000
     35 H          -1.8360    9.6508    6.4206 H       1  UNL1        0.0000
     36 H          -1.4800   13.7789    7.4966 H       1  UNL1        0.0000
     37 H          -0.2717   14.3063    6.3399 H       1  UNL1        0.0000
     38 H           0.1789   13.2496    7.6742 H       1  UNL1        0.0000
     39 H          -3.4275   12.5667    5.3805 H       1  UNL1        0.0000
     40 H          -2.8365   11.4525    4.1549 H       1  UNL1        0.0000
     41 H          -2.3782   13.1449    4.0960 H       1  UNL1        0.0000
     42 H           1.0231    7.7340    6.0027 H       1  UNL1        0.0000
     43 H          -0.5159    5.8109    5.8054 H       1  UNL1        0.0000
     44 H          -2.3236    5.8437    4.1341 H       1  UNL1        0.0000
     45 H          -2.6031    7.7916    2.6462 H       1  UNL1        0.0000
     46 H          -1.0413    9.7224    2.8360 H       1  UNL1        0.0000
     47 H           3.3359    8.4138    4.5954 H       1  UNL1        0.0000
     48 H           5.2028    8.1388    6.1914 H       1  UNL1        0.0000
     49 H           5.3784    9.6290    8.1469 H       1  UNL1        0.0000
     50 H           3.6985   11.3969    8.5077 H       1  UNL1        0.0000
     51 H           1.8258   11.6657    6.8937 H       1  UNL1        0.0000
@<TRIPOS>BOND
     1    32     8    1
     2    30     8    1
     3     8    31    1
     4     8     1    1
     5    24     6    1
     6    28     7    1
     7    26     6    1
     8    29     7    1
     9     1     6    1
    10     1     7    1
    11     1     3    1
    12     6    25    1
    13     7    27    1
    14    45    16    1
    15    46    17    1
    16     3     5    1
    17    16    17   ar
    18    16    15   ar
    19    17    12   ar
    20    41    11    1
    21    44    15    1
    22    40    11    1
    23    15    14   ar
    24    12     5    1
    25    12    13   ar
    26     5     4    1
    27     5    18    1
    28    47    19    1
    29     4     2    1
    30    11    39    1
    31    11     2    1
    32    14    13   ar
    33    14    43    1
    34    13    42    1
    35    19    18   ar
    36    19    20   ar
    37    18    23   ar
    38     2     9    1
    39     2    10    1
    40    48    20    1
    41    37    10    1
    42    20    21   ar
    43    35     9    1
    44    23    51    1
    45    23    22   ar
    46     9    34    1
    47     9    33    1
    48    10    36    1
    49    10    38    1
    50    21    22   ar
    51    21    49    1
    52    22    50    1
