@<TRIPOS>MOLECULE
4,5
 51 52 0 0 0
SMALL
GASTEIGER

@<TRIPOS>ATOM
      1 SI          2.5585    2.9700    6.4107 Si      1  UNL1        0.0000
      2 SI          2.4134    0.9909    0.9557 Si      1  UNL1        0.0000
      3 P           1.8792    2.2194    3.5653 P.3     1  UNL1        0.0000
      4 N           2.6657    2.0360    4.9561 N.3     1  UNL1        0.0000
      5 N           2.5599    1.0528    2.6894 N.3     1  UNL1        0.0000
      6 C           0.0936    1.9737    3.8066 C.ar    1  UNL1        0.0000
      7 C          -0.3456    0.6562    3.7608 C.ar    1  UNL1        0.0000
      8 C          -1.6644    0.3519    4.0442 C.ar    1  UNL1        0.0000
      9 C          -2.5486    1.3657    4.3786 C.ar    1  UNL1        0.0000
     10 C          -2.1096    2.6786    4.4408 C.ar    1  UNL1        0.0000
     11 C          -0.7884    2.9847    4.1641 C.ar    1  UNL1        0.0000
     12 C           2.1771    3.8506    2.8052 C.ar    1  UNL1        0.0000
     13 C           1.2404    4.6073    2.1134 C.ar    1  UNL1        0.0000
     14 C           1.6246    5.7880    1.4997 C.ar    1  UNL1        0.0000
     15 C           2.9415    6.2126    1.5632 C.ar    1  UNL1        0.0000
     16 C           3.8846    5.4508    2.2361 C.ar    1  UNL1        0.0000
     17 C           3.5033    4.2723    2.8500 C.ar    1  UNL1        0.0000
     18 C           0.5815    1.2844    0.4771 C.3     1  UNL1        0.0000
     19 C           3.4752    2.3219    0.0721 C.3     1  UNL1        0.0000
     20 C           2.9239   -0.7378    0.3396 C.3     1  UNL1        0.0000
     21 C           3.6128    2.0532    7.7077 C.3     1  UNL1        0.0000
     22 C           0.7580    3.0534    7.0664 C.3     1  UNL1        0.0000
     23 C           3.1899    4.7644    6.1820 C.3     1  UNL1        0.0000
     24 H           0.3661   -0.1155    3.4963 H       1  UNL1        0.0000
     25 H          -2.0030   -0.6733    4.0075 H       1  UNL1        0.0000
     26 H          -3.5804    1.1330    4.5977 H       1  UNL1        0.0000
     27 H          -2.7983    3.4655    4.7123 H       1  UNL1        0.0000
     28 H          -0.4402    4.0054    4.2348 H       1  UNL1        0.0000
     29 H           0.2141    4.2761    2.0439 H       1  UNL1        0.0000
     30 H           0.8924    6.3757    0.9651 H       1  UNL1        0.0000
     31 H           3.2341    7.1337    1.0815 H       1  UNL1        0.0000
     32 H           4.9146    5.7720    2.2781 H       1  UNL1        0.0000
     33 H           4.2389    3.6664    3.3769 H       1  UNL1        0.0000
     34 H           0.4809    1.3573   -0.6002 H       1  UNL1        0.0000
     35 H           0.1967    2.2031    0.9084 H       1  UNL1        0.0000
     36 H          -0.0578    0.4738    0.8131 H       1  UNL1        0.0000
     37 H           3.6093    2.0588   -0.9724 H       1  UNL1        0.0000
     38 H           4.4648    2.3868    0.5191 H       1  UNL1        0.0000
     39 H           3.0232    3.3102    0.1058 H       1  UNL1        0.0000
     40 H           2.7309   -0.8114   -0.7253 H       1  UNL1        0.0000
     41 H           2.3799   -1.5352    0.8338 H       1  UNL1        0.0000
     42 H           3.9831   -0.9021    0.5001 H       1  UNL1        0.0000
     43 H           3.4886    2.4957    8.6904 H       1  UNL1        0.0000
     44 H           4.6658    2.1018    7.4503 H       1  UNL1        0.0000
     45 H           3.3403    1.0024    7.7757 H       1  UNL1        0.0000
     46 H           0.2095    3.8856    6.6386 H       1  UNL1        0.0000
     47 H           0.7669    3.1910    8.1421 H       1  UNL1        0.0000
     48 H           0.2004    2.1465    6.8539 H       1  UNL1        0.0000
     49 H           3.1149    5.3155    7.1140 H       1  UNL1        0.0000
     50 H           2.6219    5.3072    5.4297 H       1  UNL1        0.0000
     51 H           4.2334    4.7684    5.8792 H       1  UNL1        0.0000
@<TRIPOS>BOND
     1    37    19    1
     2    40    20    1
     3    34    18    1
     4    19    39    1
     5    19    38    1
     6    19     2    1
     7    20    42    1
     8    20    41    1
     9    20     2    1
    10    18    36    1
    11    18    35    1
    12    18     2    1
    13     2     5    1
    14    30    14    1
    15    31    15    1
    16    14    15   ar
    17    14    13   ar
    18    15    16   ar
    19    29    13    1
    20    13    12   ar
    21    16    32    1
    22    16    17   ar
    23     5     3    1
    24    12    17   ar
    25    12     3    1
    26    17    33    1
    27    24     7    1
    28     3     6    1
    29     3     4    1
    30     7     6   ar
    31     7     8   ar
    32     6    11   ar
    33    25     8    1
    34     8     9   ar
    35    11    28    1
    36    11    10   ar
    37     9    10   ar
    38     9    26    1
    39    10    27    1
    40     4     1    1
    41    50    23    1
    42    51    23    1
    43    23     1    1
    44    23    49    1
    45     1    22    1
    46     1    21    1
    47    46    22    1
    48    48    22    1
    49    22    47    1
    50    44    21    1
    51    21    45    1
    52    21    43    1
