@<TRIPOS>MOLECULE
1,2
 20 21 0 0 0
SMALL
GASTEIGER

@<TRIPOS>ATOM
      1 N          -1.5532   11.5361   14.8827 N.pl3   1  UNL1       -0.2427
      2 N          -2.5694    9.7093   13.3056 N.pl3   1  UNL1       -0.2387
      3 C          -1.2468   12.5680   15.6896 C.3     1  UNL1        0.0844
      4 C          -1.3442   12.5300   17.0563 C.2     1  UNL1       -0.0600
      5 C          -1.7863   11.3486   17.6778 C.2     1  UNL1       -0.0623
      6 C          -2.0931   10.2773   16.8820 C.2     1  UNL1       -0.0408
      7 C          -1.9622   10.3765   15.4832 C.2     1  UNL1        0.0578
      8 C          -2.3540    9.3242   14.5890 C.3     1  UNL1        0.1419
      9 C          -2.5814    7.9906   14.9893 C.2     1  UNL1       -0.0507
     10 C          -3.0542    7.0789   14.0822 C.2     1  UNL1       -0.0620
     11 C          -3.3276    7.5061   12.7769 C.2     1  UNL1       -0.0466
     12 C          -3.0648    8.8208   12.4494 C.2     1  UNL1        0.0129
     13 H          -0.9172   13.4680   15.1821 H       1  UNL1        0.0584
     14 H          -1.0840   13.3953   17.6448 H       1  UNL1        0.0592
     15 H          -1.8869   11.2957   18.7508 H       1  UNL1        0.0616
     16 H          -2.4615    9.3622   17.3178 H       1  UNL1        0.0634
     17 H          -2.3668    7.6900   16.0023 H       1  UNL1        0.0598
     18 H          -3.2233    6.0514   14.3683 H       1  UNL1        0.0616
     19 H          -3.7323    6.8268   12.0440 H       1  UNL1        0.0630
     20 H          -3.2842    9.2018   11.4583 H       1  UNL1        0.0798
@<TRIPOS>BOND
     1    20    12    1
     2    19    11    1
     3    12    11    2
     4    12     2    1
     5    11    10    1
     6     2     8    1
     7    10    18    1
     8    10     9    2
     9     8     9    1
    10     8     7    1
    11     1     7    1
    12     1     3    1
    13     9    17    1
    14    13     3    1
    15     7     6    2
    16     3     4    1
    17     6    16    1
    18     6     5    1
    19     4    14    1
    20     4     5    2
    21     5    15    1
