@<TRIPOS>MOLECULE
1,2
 44 45 0 0 0
SMALL
GASTEIGER

@<TRIPOS>ATOM
      1 N           4.6131    1.5320   13.4224 N.pl3   1  UNL1       -0.2207
      2 N           5.5400   -0.1472   15.1563 N.pl3   1  UNL1       -0.2207
      3 C           3.6988    0.6572   13.9094 C.2     1  UNL1        0.0762
      4 C           2.3511    0.7291   13.5229 C.2     1  UNL1       -0.0331
      5 C           1.9299    1.6384   12.5759 C.2     1  UNL1       -0.0389
      6 C           2.9265    2.4521   12.0043 C.2     1  UNL1       -0.0423
      7 C           4.2195    2.3748   12.4646 C.2     1  UNL1        0.0177
      8 C           4.2242   -0.3031   14.8525 C.2     1  UNL1        0.0762
      9 C           3.4615   -1.3364   15.4170 C.2     1  UNL1       -0.0331
     10 C           4.0164   -2.2370   16.3034 C.2     1  UNL1       -0.0389
     11 C           5.3668   -2.0295   16.6284 C.2     1  UNL1       -0.0423
     12 C           6.0576   -0.9873   16.0531 C.2     1  UNL1        0.0177
     13 C           0.4861    1.7854   12.1366 C.3     1  UNL1       -0.0126
     14 C           0.3876    1.4894   10.6334 C.3     1  UNL1       -0.0560
     15 C           0.0336    3.2249   12.4179 C.3     1  UNL1       -0.0560
     16 C          -0.4531    0.8336   12.8815 C.3     1  UNL1       -0.0560
     17 C           3.2255   -3.4245   16.8201 C.3     1  UNL1       -0.0126
     18 C           1.7709   -3.0341   17.1122 C.3     1  UNL1       -0.0560
     19 C           3.8377   -3.9995   18.1011 C.3     1  UNL1       -0.0560
     20 C           3.2526   -4.5021   15.7249 C.3     1  UNL1       -0.0560
     21 H           1.6463    0.0605   13.9848 H       1  UNL1        0.0640
     22 H           2.6890    3.1530   11.2210 H       1  UNL1        0.0634
     23 H           4.9880    3.0244   12.0591 H       1  UNL1        0.0802
     24 H           2.4304   -1.4350   15.1235 H       1  UNL1        0.0640
     25 H           5.8837   -2.6731   17.3178 H       1  UNL1        0.0634
     26 H           7.0975   -0.8296   16.3118 H       1  UNL1        0.0802
     27 H          -0.6451    1.5774   10.3036 H       1  UNL1        0.0238
     28 H           0.9901    2.1819   10.0527 H       1  UNL1        0.0238
     29 H           0.7316    0.4786   10.4241 H       1  UNL1        0.0238
     30 H          -1.0077    3.3510   12.1301 H       1  UNL1        0.0238
     31 H           0.1318    3.4473   13.4783 H       1  UNL1        0.0238
     32 H           0.6296    3.9422   11.8610 H       1  UNL1        0.0238
     33 H          -1.4738    0.9925   12.5406 H       1  UNL1        0.0238
     34 H          -0.4242    1.0189   13.9528 H       1  UNL1        0.0238
     35 H          -0.1945   -0.2051   12.6881 H       1  UNL1        0.0238
     36 H           1.2615   -3.8555   17.6110 H       1  UNL1        0.0238
     37 H           1.7345   -2.1610   17.7584 H       1  UNL1        0.0238
     38 H           1.2227   -2.8148   16.2002 H       1  UNL1        0.0238
     39 H           3.1859   -4.7714   18.5047 H       1  UNL1        0.0238
     40 H           4.8052   -4.4545   17.9068 H       1  UNL1        0.0238
     41 H           3.9577   -3.2211   18.8500 H       1  UNL1        0.0238
     42 H           2.7018   -5.3818   16.0504 H       1  UNL1        0.0238
     43 H           4.2772   -4.7946   15.5064 H       1  UNL1        0.0238
     44 H           2.8022   -4.1297   14.8077 H       1  UNL1        0.0238
@<TRIPOS>BOND
     1    28    14    1
     2    27    14    1
     3    29    14    1
     4    14    13    1
     5    22     6    1
     6    32    15    1
     7     6     7    2
     8     6     5    1
     9    23     7    1
    10    30    15    1
    11    13    15    1
    12    13     5    1
    13    13    16    1
    14    15    31    1
    15     7     1    1
    16    33    16    1
    17     5     4    2
    18    35    16    1
    19    16    34    1
    20     1     3    1
    21     4     3    1
    22     4    21    1
    23     3     8    2
    24    44    20    1
    25     8     2    1
    26     8     9    1
    27    24     9    1
    28     2    12    1
    29     9    10    2
    30    43    20    1
    31    20    42    1
    32    20    17    1
    33    12    26    1
    34    12    11    2
    35    38    18    1
    36    10    11    1
    37    10    17    1
    38    11    25    1
    39    17    18    1
    40    17    19    1
    41    18    36    1
    42    18    37    1
    43    40    19    1
    44    19    39    1
    45    19    41    1
