@<TRIPOS>MOLECULE
1,2
 11 10 0 0 0
SMALL
GASTEIGER

@<TRIPOS>ATOM
      1 N           4.7361    6.5170    6.1329 N.3     1  UNL1       -0.2554
      2 N           6.3665    6.8087    4.0847 N.3     1  UNL1       -0.3287
      3 C           6.0850    6.0471    6.3346 C.3     1  UNL1        0.0230
      4 C           6.9924    6.8574    5.4027 C.3     1  UNL1        0.0070
      5 H           4.2470    6.5303    7.0223 H       1  UNL1        0.1406
      6 H           6.1335    4.9806    6.0485 H       1  UNL1        0.0450
      7 H           6.4129    6.1531    7.3742 H       1  UNL1        0.0450
      8 H           6.9970    7.8996    5.7376 H       1  UNL1        0.0435
      9 H           8.0145    6.4608    5.3972 H       1  UNL1        0.0435
     10 H           6.6859    7.5724    3.4864 H       1  UNL1        0.1183
     11 H           6.5621    5.9178    3.6193 H       1  UNL1        0.1183
@<TRIPOS>BOND
     1    10     2    1
     2    11     2    1
     3     2     4    1
     4     9     4    1
     5     4     8    1
     6     4     3    1
     7     6     3    1
     8     1     3    1
     9     1     5    1
    10     3     7    1
