@<TRIPOS>MOLECULE
1,2
 40 40 0 0 0
SMALL
GASTEIGER

@<TRIPOS>ATOM
      1 N           7.1949    4.0253    3.8017 N.3     1  UNL1        0.0000
      2 N           5.9618    2.2164    3.3218 N.3     1  UNL1        0.0000
      3 SI          7.7723    5.6407    3.7386 Si      1  UNL1        0.0000
      4 SI          4.7085    1.1681    2.7666 Si      1  UNL1        0.0000
      5 C           6.1118    3.5139    3.2517 C.3     1  UNL1        0.0000
      6 C           5.0997    4.3702    2.5806 C.ar    1  UNL1        0.0000
      7 C           5.1378    4.5632    1.2052 C.ar    1  UNL1        0.0000
      8 C           4.1899    5.3616    0.5908 C.ar    1  UNL1        0.0000
      9 C           3.1969    5.9680    1.3428 C.ar    1  UNL1        0.0000
     10 C           3.1539    5.7749    2.7132 C.ar    1  UNL1        0.0000
     11 C           4.1029    4.9798    3.3314 C.ar    1  UNL1        0.0000
     12 C           7.5091    6.5990    2.1022 C.3     1  UNL1        0.0000
     13 C           7.0107    6.7201    5.1310 C.3     1  UNL1        0.0000
     14 C           9.6656    5.4924    4.0030 C.3     1  UNL1        0.0000
     15 C           3.2848    1.1570    4.0545 C.3     1  UNL1        0.0000
     16 C           3.9179    1.5674    1.0664 C.3     1  UNL1        0.0000
     17 C           5.6017   -0.5224    2.6560 C.3     1  UNL1        0.0000
     18 H           5.9145    4.0863    0.6257 H       1  UNL1        0.0000
     19 H           4.2241    5.5115   -0.4784 H       1  UNL1        0.0000
     20 H           2.4565    6.5898    0.8612 H       1  UNL1        0.0000
     21 H           2.3790    6.2451    3.3015 H       1  UNL1        0.0000
     22 H           4.0724    4.8257    4.4012 H       1  UNL1        0.0000
     23 H           8.0932    7.5144    2.0996 H       1  UNL1        0.0000
     24 H           7.8149    6.0135    1.2401 H       1  UNL1        0.0000
     25 H           6.4688    6.8739    1.9603 H       1  UNL1        0.0000
     26 H           7.4974    7.6894    5.1694 H       1  UNL1        0.0000
     27 H           7.1150    6.2648    6.1120 H       1  UNL1        0.0000
     28 H           5.9526    6.8934    4.9564 H       1  UNL1        0.0000
     29 H          10.1977    6.2565    3.4461 H       1  UNL1        0.0000
     30 H          10.0257    4.5203    3.6684 H       1  UNL1        0.0000
     31 H           9.9405    5.6073    5.0476 H       1  UNL1        0.0000
     32 H           2.5591    0.3827    3.8281 H       1  UNL1        0.0000
     33 H           3.6595    0.9749    5.0581 H       1  UNL1        0.0000
     34 H           2.7568    2.1071    4.0636 H       1  UNL1        0.0000
     35 H           3.2745    0.7502    0.7556 H       1  UNL1        0.0000
     36 H           4.6664    1.7064    0.2925 H       1  UNL1        0.0000
     37 H           3.3107    2.4662    1.1038 H       1  UNL1        0.0000
     38 H           5.1245   -1.2738    3.2778 H       1  UNL1        0.0000
     39 H           6.6353   -0.4004    2.9980 H       1  UNL1        0.0000
     40 H           5.6113   -0.9094    1.6410 H       1  UNL1        0.0000
@<TRIPOS>BOND
     1    19     8    1
     2    36    16    1
     3     8     7   ar
     4     8     9   ar
     5    18     7    1
     6    35    16    1
     7    20     9    1
     8    16    37    1
     9    16     4    1
    10     7     6   ar
    11    24    12    1
    12     9    10   ar
    13    40    17    1
    14    25    12    1
    15    23    12    1
    16    12     3    1
    17     6     5    1
    18     6    11   ar
    19    17     4    1
    20    17    39    1
    21    17    38    1
    22    10    21    1
    23    10    11   ar
    24     4     2    1
    25     4    15    1
    26     5     2    1
    27     5     1    1
    28    11    22    1
    29    29    14    1
    30    30    14    1
    31     3     1    1
    32     3    14    1
    33     3    13    1
    34    32    15    1
    35    14    31    1
    36    15    34    1
    37    15    33    1
    38    28    13    1
    39    13    26    1
    40    13    27    1
