@<TRIPOS>MOLECULE
1,2
 78 82 0 0 0
SMALL
GASTEIGER

@<TRIPOS>ATOM
      1 N           1.5048    7.3798    5.8282 N.pl3   1  UNL1       -0.2448
      2 N           3.3774    5.3110    4.3306 N.pl3   1  UNL1       -0.2181
      3 P           3.2847    4.9721    5.9005 P.3     1  UNL1        0.0537
      4 S           2.2083    9.3503    7.9328 S.2     1  UNL1       -0.0997
      5 C           1.0874    6.4772    6.7396 C.ar    1  UNL1        0.0575
      6 C          -0.0096    6.6511    7.6220 C.ar    1  UNL1       -0.0384
      7 H          -0.5414    7.5897    7.6412 H       1  UNL1        0.0637
      8 C          -0.4049    5.6643    8.4902 C.ar    1  UNL1       -0.0599
      9 H          -1.2482    5.8460    9.1422 H       1  UNL1        0.0618
     10 C           0.2614    4.4444    8.5571 C.ar    1  UNL1       -0.0610
     11 H          -0.0603    3.6766    9.2432 H       1  UNL1        0.0618
     12 C           1.3562    4.2474    7.7444 C.ar    1  UNL1       -0.0506
     13 H           1.9100    3.3190    7.7972 H       1  UNL1        0.0625
     14 C           1.7714    5.2298    6.8512 C.ar    1  UNL1        0.0213
     15 C           4.5330    6.0211    6.7249 C.ar    1  UNL1       -0.0012
     16 C           4.2461    6.6447    7.9370 C.ar    1  UNL1       -0.0524
     17 H           3.2512    6.5765    8.3547 H       1  UNL1        0.0624
     18 C           5.2334    7.3452    8.6092 C.ar    1  UNL1       -0.0611
     19 H           4.9970    7.8399    9.5392 H       1  UNL1        0.0618
     20 C           6.5185    7.4037    8.0957 C.ar    1  UNL1       -0.0617
     21 H           7.2877    7.9455    8.6255 H       1  UNL1        0.0618
     22 C           6.8208    6.7542    6.9085 C.ar    1  UNL1       -0.0611
     23 H           7.8283    6.7788    6.5208 H       1  UNL1        0.0618
     24 C           5.8352    6.0659    6.2250 C.ar    1  UNL1       -0.0524
     25 H           6.0752    5.5287    5.3187 H       1  UNL1        0.0624
     26 C           3.8412    3.2687    6.2368 C.ar    1  UNL1       -0.0012
     27 C           4.8811    2.9985    7.1207 C.ar    1  UNL1       -0.0524
     28 H           5.3389    3.8029    7.6781 H       1  UNL1        0.0624
     29 C           5.3238    1.6991    7.2937 C.ar    1  UNL1       -0.0611
     30 H           6.1299    1.4965    7.9834 H       1  UNL1        0.0618
     31 C           4.7393    0.6620    6.5852 C.ar    1  UNL1       -0.0617
     32 H           5.0922   -0.3497    6.7188 H       1  UNL1        0.0618
     33 C           3.6999    0.9251    5.7083 C.ar    1  UNL1       -0.0611
     34 H           3.2380    0.1208    5.1556 H       1  UNL1        0.0618
     35 C           3.2491    2.2212    5.5358 C.ar    1  UNL1       -0.0524
     36 H           2.4390    2.4224    4.8516 H       1  UNL1        0.0624
     37 C           3.0268    4.3673    3.3246 C.ar    1  UNL1        0.0596
     38 C           1.6898    4.0417    3.0340 C.ar    1  UNL1       -0.0216
     39 C           1.4219    3.0604    2.0895 C.ar    1  UNL1       -0.0565
     40 H           0.3970    2.7896    1.8843 H       1  UNL1        0.0621
     41 C           2.4382    2.4158    1.4128 C.ar    1  UNL1       -0.0611
     42 H           2.2106    1.6410    0.6959 H       1  UNL1        0.0618
     43 C           3.7460    2.7908    1.6459 C.ar    1  UNL1       -0.0565
     44 H           4.5414    2.3118    1.0954 H       1  UNL1        0.0621
     45 C           4.0567    3.7664    2.5811 C.ar    1  UNL1       -0.0216
     46 C           5.4971    4.1795    2.7653 C.3     1  UNL1       -0.0197
     47 H           5.5066    5.0423    3.4378 H       1  UNL1        0.0344
     48 C           6.1128    4.6286    1.4383 C.3     1  UNL1       -0.0586
     49 H           6.2126    3.7958    0.7468 H       1  UNL1        0.0235
     50 H           7.1014    5.0490    1.6104 H       1  UNL1        0.0235
     51 H           5.4897    5.3901    0.9744 H       1  UNL1        0.0235
     52 C           6.3221    3.0554    3.3950 C.3     1  UNL1       -0.0586
     53 H           5.9081    2.7680    4.3596 H       1  UNL1        0.0235
     54 H           7.3511    3.3791    3.5412 H       1  UNL1        0.0235
     55 H           6.3276    2.1774    2.7532 H       1  UNL1        0.0235
     56 C           0.5320    4.7406    3.7073 C.3     1  UNL1       -0.0197
     57 H           0.9304    5.5516    4.3325 H       1  UNL1        0.0344
     58 C          -0.2703    3.7813    4.5905 C.3     1  UNL1       -0.0586
     59 H          -0.7211    2.9925    3.9912 H       1  UNL1        0.0235
     60 H          -1.0640    4.3214    5.1029 H       1  UNL1        0.0235
     61 H           0.3609    3.3211    5.3480 H       1  UNL1        0.0235
     62 C          -0.3899    5.3845    2.6678 C.3     1  UNL1       -0.0586
     63 H           0.1747    6.0556    2.0250 H       1  UNL1        0.0235
     64 H          -1.1666    5.9580    3.1695 H       1  UNL1        0.0235
     65 H          -0.8729    4.6322    2.0483 H       1  UNL1        0.0235
     66 C           0.6907    8.5836    5.7019 C.3     1  UNL1        0.0628
     67 H          -0.3857    8.3384    5.7099 H       1  UNL1        0.0536
     68 H           0.8984    9.0395    4.7172 H       1  UNL1        0.0536
     69 C           0.9720    9.6137    6.7531 C.ar    1  UNL1        0.0117
     70 C           0.3819   10.8366    6.8942 C.ar    1  UNL1       -0.0387
     71 C           0.9307   11.5698    7.9771 C.ar    1  UNL1       -0.0515
     72 H           0.5972   12.5549    8.2525 H       1  UNL1        0.0626
     73 C           1.9176   10.9011    8.6220 C.ar    1  UNL1       -0.0238
     74 H           2.4952   11.2171    9.4673 H       1  UNL1        0.0693
     75 C          -0.7069   11.3346    6.0005 C.3     1  UNL1       -0.0389
     76 H          -0.3814   11.3172    4.9606 H       1  UNL1        0.0278
     77 H          -0.9810   12.3515    6.2682 H       1  UNL1        0.0278
     78 H          -1.5916   10.7023    6.0813 H       1  UNL1        0.0278
@<TRIPOS>BOND
     1    42    41    1
     2    49    48    1
     3    51    48    1
     4    44    43    1
     5    41    43   ar
     6    41    39   ar
     7    48    50    1
     8    48    46    1
     9    43    45   ar
    10    40    39    1
    11    63    62    1
    12    65    62    1
    13    39    38   ar
    14    45    46    1
    15    45    37   ar
    16    62    64    1
    17    62    56    1
    18    55    52    1
    19    46    52    1
    20    46    47    1
    21    38    37   ar
    22    38    56    1
    23    37     2    1
    24    52    54    1
    25    52    53    1
    26    56    57    1
    27    56    58    1
    28    59    58    1
    29     2     3    1
    30    58    60    1
    31    58    61    1
    32    68    66    1
    33    36    35    1
    34    76    75    1
    35    34    33    1
    36    25    24    1
    37    35    33   ar
    38    35    26   ar
    39    66    67    1
    40    66     1    1
    41    66    69    1
    42    33    31   ar
    43     1     5    1
    44     3    26    1
    45     3    15    1
    46     3    14    1
    47    75    78    1
    48    75    77    1
    49    75    70    1
    50    24    15   ar
    51    24    22   ar
    52    26    27   ar
    53    23    22    1
    54    31    32    1
    55    31    29   ar
    56    15    16   ar
    57     5    14   ar
    58     5     6   ar
    59    69    70   ar
    60    69     4   ar
    61    14    12   ar
    62    70    71   ar
    63    22    20   ar
    64    27    29   ar
    65    27    28    1
    66    29    30    1
    67     6     7    1
    68     6     8   ar
    69    12    13    1
    70    12    10   ar
    71     4    73   ar
    72    16    17    1
    73    16    18   ar
    74    71    72    1
    75    71    73   ar
    76    20    18   ar
    77    20    21    1
    78     8    10   ar
    79     8     9    1
    80    10    11    1
    81    18    19    1
    82    73    74    1
