@<TRIPOS>MOLECULE
1,6
 40 40 0 0 0
SMALL
GASTEIGER

@<TRIPOS>ATOM
      1 N           4.9130    3.8331   -1.4793 N.3     1  UNL1        0.0000
      2 SI          6.3112    4.7507   -1.9472 Si      1  UNL1        0.0000
      3 C           5.8624    6.4792   -2.6431 C.3     1  UNL1        0.0000
      4 C           7.2512    4.9993   -0.3006 C.3     1  UNL1        0.0000
      5 C           7.4107    3.8656   -3.2453 C.3     1  UNL1        0.0000
      6 N           2.7668    3.4774   -1.1738 N.3     1  UNL1        0.0000
      7 SI          1.1737    2.9529   -1.6248 Si      1  UNL1        0.0000
      8 C          -0.1661    4.3130   -1.4455 C.3     1  UNL1        0.0000
      9 C           1.0974    2.2911   -3.4218 C.3     1  UNL1        0.0000
     10 C           0.8319    1.4935   -0.4377 C.3     1  UNL1        0.0000
     11 C           3.6972    3.9434   -1.9937 C.3     1  UNL1        0.0000
     12 C           3.4147    4.5149   -3.3154 C.ar    1  UNL1        0.0000
     13 C           2.4829    5.5407   -3.4542 C.ar    1  UNL1        0.0000
     14 C           2.2227    6.0817   -4.6987 C.ar    1  UNL1        0.0000
     15 C           2.8795    5.5994   -5.8200 C.ar    1  UNL1        0.0000
     16 C           3.8039    4.5749   -5.6890 C.ar    1  UNL1        0.0000
     17 C           4.0755    4.0384   -4.4448 C.ar    1  UNL1        0.0000
     18 H           5.1080    6.9641   -2.0305 H       1  UNL1        0.0000
     19 H           6.7352    7.1246   -2.6647 H       1  UNL1        0.0000
     20 H           5.4726    6.4212   -3.6540 H       1  UNL1        0.0000
     21 H           6.7098    4.5096    0.5077 H       1  UNL1        0.0000
     22 H           8.2475    4.5740   -0.3415 H       1  UNL1        0.0000
     23 H           7.3575    6.0506   -0.0526 H       1  UNL1        0.0000
     24 H           7.3696    2.7854   -3.1511 H       1  UNL1        0.0000
     25 H           7.1169    4.1244   -4.2580 H       1  UNL1        0.0000
     26 H           8.4469    4.1649   -3.1237 H       1  UNL1        0.0000
     27 H          -0.2739    4.8889   -2.3596 H       1  UNL1        0.0000
     28 H          -1.1298    3.8610   -1.2333 H       1  UNL1        0.0000
     29 H           0.0550    5.0043   -0.6389 H       1  UNL1        0.0000
     30 H           1.1280    3.0938   -4.1513 H       1  UNL1        0.0000
     31 H           1.9324    1.6289   -3.6309 H       1  UNL1        0.0000
     32 H           0.1821    1.7315   -3.5882 H       1  UNL1        0.0000
     33 H          -0.0024    1.7042    0.2215 H       1  UNL1        0.0000
     34 H           0.5972    0.5815   -0.9773 H       1  UNL1        0.0000
     35 H           1.7094    1.3104    0.1813 H       1  UNL1        0.0000
     36 H           1.9845    5.9176   -2.5747 H       1  UNL1        0.0000
     37 H           1.5065    6.8847   -4.7981 H       1  UNL1        0.0000
     38 H           2.6717    6.0206   -6.7925 H       1  UNL1        0.0000
     39 H           4.3125    4.1934   -6.5627 H       1  UNL1        0.0000
     40 H           4.7856    3.2336   -4.3355 H       1  UNL1        0.0000
@<TRIPOS>BOND
     1    38    15    1
     2    39    16    1
     3    15    16   ar
     4    15    14   ar
     5    16    17   ar
     6    37    14    1
     7    14    13   ar
     8    17    40    1
     9    17    12   ar
    10    25     5    1
    11    30     9    1
    12    20     3    1
    13    31     9    1
    14    32     9    1
    15    13    12   ar
    16    13    36    1
    17     9     7    1
    18    12    11    1
    19     5    24    1
    20     5    26    1
    21     5     2    1
    22    19     3    1
    23     3    18    1
    24     3     2    1
    25    27     8    1
    26    11     1    1
    27    11     6    1
    28     2     1    1
    29     2     4    1
    30     7     8    1
    31     7     6    1
    32     7    10    1
    33     8    28    1
    34     8    29    1
    35    34    10    1
    36    10    35    1
    37    10    33    1
    38    22     4    1
    39     4    23    1
    40     4    21    1
