@<TRIPOS>MOLECULE
1,6
 40 40 0 0 0
SMALL
GASTEIGER

@<TRIPOS>ATOM
      1 N           3.4309    2.4052    2.0066 N.3     1  UNL1        0.0000
      2 SI          2.0712    2.7788    3.0203 Si      1  UNL1        0.0000
      3 C           0.8988    1.2896    3.3117 C.3     1  UNL1        0.0000
      4 C           1.1829    4.1825    2.0731 C.3     1  UNL1        0.0000
      5 C           2.5924    3.4553    4.7361 C.3     1  UNL1        0.0000
      6 N           5.5625    2.2650    1.4938 N.3     1  UNL1        0.0000
      7 SI          7.1150    1.4925    1.3972 Si      1  UNL1        0.0000
      8 C           7.4094    1.3178   -0.4840 C.3     1  UNL1        0.0000
      9 C           8.5282    2.4923    2.2218 C.3     1  UNL1        0.0000
     10 C           7.1142   -0.2622    2.1679 C.3     1  UNL1        0.0000
     11 C           4.6383    2.0480    2.4179 C.3     1  UNL1        0.0000
     12 C           4.9198    1.4783    3.7407 C.ar    1  UNL1        0.0000
     13 C           4.2113    0.3687    4.1951 C.ar    1  UNL1        0.0000
     14 C           4.4833   -0.1704    5.4380 C.ar    1  UNL1        0.0000
     15 C           5.4562    0.3966    6.2462 C.ar    1  UNL1        0.0000
     16 C           6.1604    1.5049    5.8021 C.ar    1  UNL1        0.0000
     17 C           5.8992    2.0407    4.5555 C.ar    1  UNL1        0.0000
     18 H           1.1841    0.7259    4.1947 H       1  UNL1        0.0000
     19 H          -0.1173    1.6387    3.4662 H       1  UNL1        0.0000
     20 H           0.8847    0.6062    2.4690 H       1  UNL1        0.0000
     21 H           1.7209    4.3995    1.1514 H       1  UNL1        0.0000
     22 H           0.1680    3.9070    1.8105 H       1  UNL1        0.0000
     23 H           1.1300    5.0937    2.6604 H       1  UNL1        0.0000
     24 H           2.9616    2.6696    5.3871 H       1  UNL1        0.0000
     25 H           3.3800    4.1971    4.6418 H       1  UNL1        0.0000
     26 H           1.7520    3.9274    5.2358 H       1  UNL1        0.0000
     27 H           6.5362    1.6768   -1.0274 H       1  UNL1        0.0000
     28 H           8.2650    1.8994   -0.8077 H       1  UNL1        0.0000
     29 H           7.5907    0.2866   -0.7698 H       1  UNL1        0.0000
     30 H           8.6352    2.2396    3.2722 H       1  UNL1        0.0000
     31 H           9.4737    2.2683    1.7380 H       1  UNL1        0.0000
     32 H           8.3703    3.5635    2.1498 H       1  UNL1        0.0000
     33 H           6.2402   -0.8266    1.8564 H       1  UNL1        0.0000
     34 H           7.9941   -0.8188    1.8603 H       1  UNL1        0.0000
     35 H           7.1104   -0.2285    3.2525 H       1  UNL1        0.0000
     36 H           3.4635   -0.0730    3.5550 H       1  UNL1        0.0000
     37 H           3.9377   -1.0380    5.7800 H       1  UNL1        0.0000
     38 H           5.6650   -0.0236    7.2190 H       1  UNL1        0.0000
     39 H           6.9144    1.9523    6.4336 H       1  UNL1        0.0000
     40 H           6.4347    2.9100    4.2067 H       1  UNL1        0.0000
@<TRIPOS>BOND
     1    27     8    1
     2    28     8    1
     3    29     8    1
     4     8     7    1
     5    21     4    1
     6     7     6    1
     7     7    10    1
     8     7     9    1
     9     6    11    1
    10    31     9    1
    11    22     4    1
    12    33    10    1
    13    34    10    1
    14     1    11    1
    15     1     2    1
    16     4    23    1
    17     4     2    1
    18    32     9    1
    19    10    35    1
    20     9    30    1
    21    11    12    1
    22    20     3    1
    23     2     3    1
    24     2     5    1
    25     3    19    1
    26     3    18    1
    27    36    13    1
    28    12    13   ar
    29    12    17   ar
    30    13    14   ar
    31    40    17    1
    32    17    16   ar
    33    25     5    1
    34     5    26    1
    35     5    24    1
    36    14    37    1
    37    14    15   ar
    38    16    15   ar
    39    16    39    1
    40    15    38    1
