@<TRIPOS>MOLECULE
2,3
 41 42 0 0 0
SMALL
GASTEIGER

@<TRIPOS>ATOM
      1 SI         -0.4374   -4.1474   27.6412 Si      1  UNL1        0.0000
      2 N           1.5708   -0.8921   26.8227 N.3     1  UNL1        0.0000
      3 N           0.1993   -2.5914   27.2701 N.3     1  UNL1        0.0000
      4 C           2.8927   -0.3663   26.5439 C.3     1  UNL1        0.0000
      5 H           2.7693    0.4811   25.8536 H       1  UNL1        0.0000
      6 H           3.5158   -1.1177   26.0320 H       1  UNL1        0.0000
      7 C           3.6373    0.1094   27.7720 C.ar    1  UNL1        0.0000
      8 C           2.9860    0.2422   28.9904 C.ar    1  UNL1        0.0000
      9 H           1.9344   -0.0049   29.0487 H       1  UNL1        0.0000
     10 C           3.6686    0.6862   30.1098 C.ar    1  UNL1        0.0000
     11 H           3.1463    0.7882   31.0496 H       1  UNL1        0.0000
     12 C           5.0133    1.0017   30.0203 C.ar    1  UNL1        0.0000
     13 H           5.5487    1.3486   30.8918 H       1  UNL1        0.0000
     14 C           5.6709    0.8716   28.8075 C.ar    1  UNL1        0.0000
     15 H           6.7207    1.1161   28.7330 H       1  UNL1        0.0000
     16 C           4.9872    0.4283   27.6897 C.ar    1  UNL1        0.0000
     17 H           5.5033    0.3267   26.7452 H       1  UNL1        0.0000
     18 C           1.4414   -2.1672   27.1249 C.3     1  UNL1        0.0000
     19 C           2.5957   -3.0936   27.2946 C.ar    1  UNL1        0.0000
     20 C           2.9101   -4.0131   26.2999 C.ar    1  UNL1        0.0000
     21 H           2.3237   -4.0350   25.3941 H       1  UNL1        0.0000
     22 C           3.9671   -4.8895   26.4702 C.ar    1  UNL1        0.0000
     23 H           4.2061   -5.5992   25.6916 H       1  UNL1        0.0000
     24 C           4.7158   -4.8604   27.6349 C.ar    1  UNL1        0.0000
     25 H           5.5390   -5.5467   27.7672 H       1  UNL1        0.0000
     26 C           4.4034   -3.9500   28.6301 C.ar    1  UNL1        0.0000
     27 H           4.9819   -3.9248   29.5419 H       1  UNL1        0.0000
     28 C           3.3504   -3.0685   28.4624 C.ar    1  UNL1        0.0000
     29 H           3.1093   -2.3610   29.2419 H       1  UNL1        0.0000
     30 C           0.5877   -5.1255   28.9345 C.3     1  UNL1        0.0000
     31 H           1.4999   -5.5237   28.5033 H       1  UNL1        0.0000
     32 H           0.0138   -5.9622   29.3176 H       1  UNL1        0.0000
     33 H           0.8697   -4.5049   29.7795 H       1  UNL1        0.0000
     34 C          -2.1405   -3.7412   28.4127 C.3     1  UNL1        0.0000
     35 H          -2.5798   -2.8838   27.9016 H       1  UNL1        0.0000
     36 H          -2.0519   -3.5066   29.4703 H       1  UNL1        0.0000
     37 H          -2.8262   -4.5767   28.3182 H       1  UNL1        0.0000
     38 C          -0.6436   -5.2447   26.0853 C.3     1  UNL1        0.0000
     39 H           0.3137   -5.5494   25.6724 H       1  UNL1        0.0000
     40 H          -1.1944   -4.7112   25.3156 H       1  UNL1        0.0000
     41 H          -1.1957   -6.1479   26.3244 H       1  UNL1        0.0000
@<TRIPOS>BOND
     1    40    38    1
     2    21    20    1
     3    39    38    1
     4    23    22    1
     5     5     4    1
     6     6     4    1
     7    38    41    1
     8    38     1    1
     9    20    22   ar
    10    20    19   ar
    11    22    24   ar
    12     4     2    1
    13     4     7    1
    14    17    16    1
    15     2    18    1
    16    18     3    1
    17    18    19    1
    18     3     1    1
    19    19    28   ar
    20    24    25    1
    21    24    26   ar
    22     1    34    1
    23     1    30    1
    24    16     7   ar
    25    16    14   ar
    26     7     8   ar
    27    35    34    1
    28    37    34    1
    29    34    36    1
    30    28    26   ar
    31    28    29    1
    32    31    30    1
    33    26    27    1
    34    15    14    1
    35    14    12   ar
    36    30    32    1
    37    30    33    1
    38     8     9    1
    39     8    10   ar
    40    12    10   ar
    41    12    13    1
    42    10    11    1
