@<TRIPOS>MOLECULE
2,3
 41 42 0 0 0
SMALL
GASTEIGER

@<TRIPOS>ATOM
      1 SI          0.1863   -0.4349   23.3133 Si      1  UNL1        0.0000
      2 N          -0.6392    1.5710   26.5682 N.3     1  UNL1        0.0000
      3 N          -0.1880    0.2005   24.8691 N.3     1  UNL1        0.0000
      4 C          -0.9185    2.8926   27.0942 C.3     1  UNL1        0.0000
      5 H          -1.6080    2.7689   27.9422 H       1  UNL1        0.0000
      6 H          -1.4313    3.5156   26.3433 H       1  UNL1        0.0000
      7 C           0.3100    3.6375   27.5689 C.ar    1  UNL1        0.0000
      8 C           1.5283    2.9860   27.7019 C.ar    1  UNL1        0.0000
      9 H           1.5862    1.9341   27.4557 H       1  UNL1        0.0000
     10 C           2.6479    3.6687   28.1448 C.ar    1  UNL1        0.0000
     11 H           3.5877    3.1462   28.2471 H       1  UNL1        0.0000
     12 C           2.5590    5.0138   28.4590 C.ar    1  UNL1        0.0000
     13 H           3.4308    5.5493   28.8050 H       1  UNL1        0.0000
     14 C           1.3464    5.6716   28.3286 C.ar    1  UNL1        0.0000
     15 H           1.2723    6.7217   28.5719 H       1  UNL1        0.0000
     16 C           0.2282    4.9878   27.8863 C.ar    1  UNL1        0.0000
     17 H          -0.7162    5.5041   27.7845 H       1  UNL1        0.0000
     18 C          -0.3357    1.4423   25.2933 C.3     1  UNL1        0.0000
     19 C          -0.1679    2.5971   24.3672 C.ar    1  UNL1        0.0000
     20 C          -1.1638    2.9102   23.4484 C.ar    1  UNL1        0.0000
     21 H          -2.0684    2.3220   23.4266 H       1  UNL1        0.0000
     22 C          -0.9961    3.9681   22.5726 C.ar    1  UNL1        0.0000
     23 H          -1.7755    4.2061   21.8635 H       1  UNL1        0.0000
     24 C           0.1671    4.7191   22.6017 C.ar    1  UNL1        0.0000
     25 H           0.2973    5.5432   21.9159 H       1  UNL1        0.0000
     26 C           1.1635    4.4081   23.5113 C.ar    1  UNL1        0.0000
     27 H           2.0741    4.9884   23.5365 H       1  UNL1        0.0000
     28 C           0.9983    3.3540   24.3921 C.ar    1  UNL1        0.0000
     29 H           1.7788    3.1140   25.0990 H       1  UNL1        0.0000
     30 C           1.4817    0.5916   22.3394 C.3     1  UNL1        0.0000
     31 H           1.0512    1.5041   21.9411 H       1  UNL1        0.0000
     32 H           1.8671    0.0188   21.5031 H       1  UNL1        0.0000
     33 H           2.3251    0.8733   22.9625 H       1  UNL1        0.0000
     34 C           0.9569   -2.1383   23.7193 C.3     1  UNL1        0.0000
     35 H           0.4440   -2.5786   24.5752 H       1  UNL1        0.0000
     36 H           2.0141   -2.0501   23.9562 H       1  UNL1        0.0000
     37 H           0.8642   -2.8232   22.8829 H       1  UNL1        0.0000
     38 C          -1.3673   -0.6400   22.2124 C.3     1  UNL1        0.0000
     39 H          -1.7785    0.3176   21.9065 H       1  UNL1        0.0000
     40 H          -2.1387   -1.1900   22.7442 H       1  UNL1        0.0000
     41 H          -1.1265   -1.1925   21.3100 H       1  UNL1        0.0000
@<TRIPOS>BOND
     1    41    38    1
     2    32    30    1
     3    23    22    1
     4    39    38    1
     5    25    24    1
     6    31    30    1
     7    38    40    1
     8    38     1    1
     9    30    33    1
    10    30     1    1
    11    22    24   ar
    12    22    20   ar
    13    24    26   ar
    14    37    34    1
    15     1    34    1
    16     1     3    1
    17    21    20    1
    18    20    19   ar
    19    26    27    1
    20    26    28   ar
    21    34    36    1
    22    34    35    1
    23    19    28   ar
    24    19    18    1
    25    28    29    1
    26     3    18    1
    27    18     2    1
    28     6     4    1
    29     2     4    1
    30     4     7    1
    31     4     5    1
    32     9     8    1
    33     7     8   ar
    34     7    16   ar
    35     8    10   ar
    36    17    16    1
    37    16    14   ar
    38    10    11    1
    39    10    12   ar
    40    14    12   ar
    41    14    15    1
    42    12    13    1
