@<TRIPOS>MOLECULE
2,3
 41 42 0 0 0
SMALL
GASTEIGER

@<TRIPOS>ATOM
      1 SI         -4.1474    0.1820   27.0246 Si      1  UNL1        0.0000
      2 N          -0.8914   -0.6386   29.0308 N.3     1  UNL1        0.0000
      3 N          -2.5911   -0.1899   27.6602 N.3     1  UNL1        0.0000
      4 C          -0.3651   -0.9173   30.3525 C.3     1  UNL1        0.0000
      5 H           0.4820   -1.6079   30.2289 H       1  UNL1        0.0000
      6 H          -1.1164   -1.4288   30.9761 H       1  UNL1        0.0000
      7 C           0.1114    0.3110   31.0965 C.ar    1  UNL1        0.0000
      8 C           0.2420    1.5297   30.4454 C.ar    1  UNL1        0.0000
      9 H          -0.0070    1.5881   29.3942 H       1  UNL1        0.0000
     10 C           0.6865    2.6491   31.1275 C.ar    1  UNL1        0.0000
     11 H           0.7869    3.5892   30.6053 H       1  UNL1        0.0000
     12 C           1.0048    2.5595   32.4716 C.ar    1  UNL1        0.0000
     13 H           1.3521    3.4310   33.0065 H       1  UNL1        0.0000
     14 C           0.8769    1.3463   33.1290 C.ar    1  UNL1        0.0000
     15 H           1.1236    1.2716   34.1782 H       1  UNL1        0.0000
     16 C           0.4329    0.2284   32.4458 C.ar    1  UNL1        0.0000
     17 H           0.3332   -0.7164   32.9617 H       1  UNL1        0.0000
     18 C          -2.1665   -0.3358   28.9021 C.3     1  UNL1        0.0000
     19 C          -3.0921   -0.1664   30.0570 C.ar    1  UNL1        0.0000
     20 C          -4.0108   -1.1616   30.3724 C.ar    1  UNL1        0.0000
     21 H          -4.0328   -2.0674   29.7859 H       1  UNL1        0.0000
     22 C          -4.8862   -0.9919   31.4303 C.ar    1  UNL1        0.0000
     23 H          -5.5952   -1.7709   31.6700 H       1  UNL1        0.0000
     24 C          -4.8569    0.1728   32.1790 C.ar    1  UNL1        0.0000
     25 H          -5.5424    0.3046   33.0030 H       1  UNL1        0.0000
     26 C          -3.9475    1.1686   31.8657 C.ar    1  UNL1        0.0000
     27 H          -3.9222    2.0804   32.4442 H       1  UNL1        0.0000
     28 C          -3.0670    1.0013   30.8117 C.ar    1  UNL1        0.0000
     29 H          -2.3602    1.7813   30.5699 H       1  UNL1        0.0000
     30 C          -5.1249    1.4746   28.0512 C.3     1  UNL1        0.0000
     31 H          -5.5224    1.0429   28.9634 H       1  UNL1        0.0000
     32 H          -5.9619    1.8580   27.4781 H       1  UNL1        0.0000
     33 H          -4.5041    2.3195   28.3333 H       1  UNL1        0.0000
     34 C          -3.7424    0.9545   25.3218 C.3     1  UNL1        0.0000
     35 H          -2.8849    0.4442   24.8818 H       1  UNL1        0.0000
     36 H          -3.5086    2.0123   25.4106 H       1  UNL1        0.0000
     37 H          -4.5781    0.8597   24.6364 H       1  UNL1        0.0000
     38 C          -5.2449   -1.3739   26.8183 C.3     1  UNL1        0.0000
     39 H          -5.5476   -1.7882   27.7755 H       1  UNL1        0.0000
     40 H          -4.7123   -2.1427   26.2653 H       1  UNL1        0.0000
     41 H          -6.1492   -1.1341   26.2683 H       1  UNL1        0.0000
@<TRIPOS>BOND
     1    37    34    1
     2    35    34    1
     3    34    36    1
     4    34     1    1
     5    40    38    1
     6    41    38    1
     7    38     1    1
     8    38    39    1
     9     1     3    1
    10     1    30    1
    11    32    30    1
    12     3    18    1
    13    30    33    1
    14    30    31    1
    15    18     2    1
    16    18    19    1
    17     2     4    1
    18     9     8    1
    19    21    20    1
    20    19    20   ar
    21    19    28   ar
    22     5     4    1
    23     4     6    1
    24     4     7    1
    25    20    22   ar
    26     8     7   ar
    27     8    10   ar
    28    29    28    1
    29    11    10    1
    30    28    26   ar
    31     7    16   ar
    32    10    12   ar
    33    22    23    1
    34    22    24   ar
    35    26    24   ar
    36    26    27    1
    37    24    25    1
    38    16    17    1
    39    16    14   ar
    40    12    13    1
    41    12    14   ar
    42    14    15    1
