@<TRIPOS>MOLECULE
2,3
 41 42 0 0 0
SMALL
GASTEIGER

@<TRIPOS>ATOM
      1 SI         27.5609   -0.4262   -4.1788 Si      1  UNL1        0.0000
      2 N          26.7401    1.5668   -0.9132 N.3     1  UNL1        0.0000
      3 N          27.1685    0.1847   -2.6082 N.3     1  UNL1        0.0000
      4 C          26.4775    2.8952   -0.3901 C.3     1  UNL1        0.0000
      5 H          25.8000    2.7761    0.4666 H       1  UNL1        0.0000
      6 H          25.9550    3.5134   -1.1357 H       1  UNL1        0.0000
      7 C          27.7117    3.6390    0.0677 C.ar    1  UNL1        0.0000
      8 C          27.6392    4.9977    0.3496 C.ar    1  UNL1        0.0000
      9 H          26.7002    5.5191    0.2261 H       1  UNL1        0.0000
     10 C          28.7590    5.6832    0.7847 C.ar    1  UNL1        0.0000
     11 H          28.6916    6.7397    1.0004 H       1  UNL1        0.0000
     12 C          29.9647    5.0189    0.9437 C.ar    1  UNL1        0.0000
     13 H          30.8377    5.5556    1.2848 H       1  UNL1        0.0000
     14 C          30.0449    3.6658    0.6638 C.ar    1  UNL1        0.0000
     15 H          30.9786    3.1371    0.7879 H       1  UNL1        0.0000
     16 C          28.9233    2.9821    0.2276 C.ar    1  UNL1        0.0000
     17 H          28.9773    1.9258    0.0081 H       1  UNL1        0.0000
     18 C          27.0426    1.4307   -2.1878 C.3     1  UNL1        0.0000
     19 C          27.2221    2.5837   -3.1075 C.ar    1  UNL1        0.0000
     20 C          28.3965    3.3273   -3.0832 C.ar    1  UNL1        0.0000
     21 H          29.1798    3.0709   -2.3856 H       1  UNL1        0.0000
     22 C          28.5656    4.3893   -3.9534 C.ar    1  UNL1        0.0000
     23 H          29.4827    4.9593   -3.9295 H       1  UNL1        0.0000
     24 C          27.5647    4.7214   -4.8506 C.ar    1  UNL1        0.0000
     25 H          27.6983    5.5515   -5.5284 H       1  UNL1        0.0000
     26 C          26.3925    3.9846   -4.8770 C.ar    1  UNL1        0.0000
     27 H          25.6090    4.2399   -5.5756 H       1  UNL1        0.0000
     28 C          26.2204    2.9191   -4.0114 C.ar    1  UNL1        0.0000
     29 H          25.3079    2.3433   -4.0292 H       1  UNL1        0.0000
     30 C          28.8602    0.6190   -5.1192 C.3     1  UNL1        0.0000
     31 H          29.6914    0.9039   -4.4818 H       1  UNL1        0.0000
     32 H          28.4291    1.5297   -5.5207 H       1  UNL1        0.0000
     33 H          29.2628    0.0527   -5.9520 H       1  UNL1        0.0000
     34 C          28.3344   -2.1304   -3.7974 C.3     1  UNL1        0.0000
     35 H          29.3932   -2.0474   -3.5687 H       1  UNL1        0.0000
     36 H          28.2318   -2.8062   -4.6397 H       1  UNL1        0.0000
     37 H          27.8316   -2.5823   -2.9439 H       1  UNL1        0.0000
     38 C          26.0098   -0.6144   -5.2796 C.3     1  UNL1        0.0000
     39 H          25.2462   -1.1900   -4.7644 H       1  UNL1        0.0000
     40 H          26.2560   -1.1355   -6.1991 H       1  UNL1        0.0000
     41 H          25.5858    0.3471   -5.5541 H       1  UNL1        0.0000
@<TRIPOS>BOND
     1    40    38    1
     2    33    30    1
     3    27    26    1
     4    41    38    1
     5    25    24    1
     6    32    30    1
     7    38    39    1
     8    38     1    1
     9    30    31    1
    10    30     1    1
    11    26    24   ar
    12    26    28   ar
    13    24    22   ar
    14    36    34    1
    15     1    34    1
    16     1     3    1
    17    29    28    1
    18    28    19   ar
    19    22    23    1
    20    22    20   ar
    21    34    35    1
    22    34    37    1
    23    19    20   ar
    24    19    18    1
    25    20    21    1
    26     3    18    1
    27    18     2    1
    28     6     4    1
    29     2     4    1
    30     4     7    1
    31     4     5    1
    32    17    16    1
    33     7    16   ar
    34     7     8   ar
    35     9     8    1
    36    16    14   ar
    37     8    10   ar
    38    14    15    1
    39    14    12   ar
    40    10    12   ar
    41    10    11    1
    42    12    13    1
