@<TRIPOS>MOLECULE
2,3
 41 42 0 0 0
SMALL
GASTEIGER

@<TRIPOS>ATOM
      1 SI         26.9560   -4.1788    0.1853 Si      1  UNL1        0.0000
      2 N          28.9424   -0.9098   -0.6370 N.3     1  UNL1        0.0000
      3 N          27.5632   -2.6071   -0.2082 N.3     1  UNL1        0.0000
      4 C          30.2698   -0.3846   -0.8997 C.3     1  UNL1        0.0000
      5 H          30.1492    0.4728   -1.5760 H       1  UNL1        0.0000
      6 H          30.8888   -1.1285   -1.4235 H       1  UNL1        0.0000
      7 C          31.0135    0.0728    0.3348 C.ar    1  UNL1        0.0000
      8 C          32.3715    0.3577    0.2619 C.ar    1  UNL1        0.0000
      9 H          32.8926    0.2370   -0.6776 H       1  UNL1        0.0000
     10 C          33.0568    0.7924    1.3821 C.ar    1  UNL1        0.0000
     11 H          34.1128    1.0106    1.3143 H       1  UNL1        0.0000
     12 C          32.3929    0.9481    2.5884 C.ar    1  UNL1        0.0000
     13 H          32.9293    1.2891    3.4616 H       1  UNL1        0.0000
     14 C          31.0405    0.6652    2.6689 C.ar    1  UNL1        0.0000
     15 H          30.5121    0.7867    3.6032 H       1  UNL1        0.0000
     16 C          30.3570    0.2293    1.5471 C.ar    1  UNL1        0.0000
     17 H          29.3012    0.0074    1.6015 H       1  UNL1        0.0000
     18 C          28.8084   -2.1848   -0.3348 C.3     1  UNL1        0.0000
     19 C          29.9634   -3.1023   -0.1569 C.ar    1  UNL1        0.0000
     20 C          30.7084   -3.0770    1.0167 C.ar    1  UNL1        0.0000
     21 H          30.4508   -2.3812    1.8010 H       1  UNL1        0.0000
     22 C          31.7733   -3.9441    1.1835 C.ar    1  UNL1        0.0000
     23 H          32.3443   -3.9194    2.0999 H       1  UNL1        0.0000
     24 C          32.1070   -4.8392    0.1812 C.ar    1  UNL1        0.0000
     25 H          32.9395   -5.5144    0.3130 H       1  UNL1        0.0000
     26 C          31.3687   -4.8668   -0.9900 C.ar    1  UNL1        0.0000
     27 H          31.6251   -5.5638   -1.7745 H       1  UNL1        0.0000
     28 C          30.3003   -4.0043   -1.1598 C.ar    1  UNL1        0.0000
     29 H          29.7234   -4.0230   -2.0716 H       1  UNL1        0.0000
     30 C          28.0056   -5.1175    1.4824 C.3     1  UNL1        0.0000
     31 H          28.2911   -4.4796    2.3130 H       1  UNL1        0.0000
     32 H          28.9160   -5.5173    1.0493 H       1  UNL1        0.0000
     33 H          27.4416   -5.9513    1.8862 H       1  UNL1        0.0000
     34 C          25.2523   -3.8013    0.9619 C.3     1  UNL1        0.0000
     35 H          25.3367   -3.5710    2.0204 H       1  UNL1        0.0000
     36 H          24.5787   -4.6456    0.8617 H       1  UNL1        0.0000
     37 H          24.7971   -2.9496    0.4591 H       1  UNL1        0.0000
     38 C          26.7673   -5.2796   -1.3657 C.3     1  UNL1        0.0000
     39 H          26.1880   -4.7659   -2.1277 H       1  UNL1        0.0000
     40 H          26.2498   -6.2009   -1.1186 H       1  UNL1        0.0000
     41 H          27.7285   -5.5507   -1.7924 H       1  UNL1        0.0000
@<TRIPOS>BOND
     1    39    38    1
     2    29    28    1
     3    41    38    1
     4    27    26    1
     5     5     4    1
     6     6     4    1
     7    38    40    1
     8    38     1    1
     9    28    26   ar
    10    28    19   ar
    11    26    24   ar
    12     4     2    1
    13     4     7    1
    14     9     8    1
    15     2    18    1
    16    18     3    1
    17    18    19    1
    18     3     1    1
    19    19    20   ar
    20    24    25    1
    21    24    22   ar
    22     1    34    1
    23     1    30    1
    24     8     7   ar
    25     8    10   ar
    26     7    16   ar
    27    37    34    1
    28    36    34    1
    29    34    35    1
    30    20    22   ar
    31    20    21    1
    32    32    30    1
    33    22    23    1
    34    11    10    1
    35    10    12   ar
    36    30    33    1
    37    30    31    1
    38    16    17    1
    39    16    14   ar
    40    12    14   ar
    41    12    13    1
    42    14    15    1
