@<TRIPOS>MOLECULE
2,3
 41 42 0 0 0
SMALL
GASTEIGER

@<TRIPOS>ATOM
      1 SI         23.1981    0.1953   -0.4192 Si      1  UNL1        0.0000
      2 N          26.4641   -0.6389    1.5670 N.3     1  UNL1        0.0000
      3 N          24.7683   -0.2045    0.1879 N.3     1  UNL1        0.0000
      4 C          26.9893   -0.9024    2.8942 C.3     1  UNL1        0.0000
      5 H          27.8468   -1.5786    2.7734 H       1  UNL1        0.0000
      6 H          26.2454   -1.4264    3.5131 H       1  UNL1        0.0000
      7 C          27.4462    0.3324    3.6377 C.ar    1  UNL1        0.0000
      8 C          27.7312    0.2598    4.9957 C.ar    1  UNL1        0.0000
      9 H          27.6111   -0.6797    5.5169 H       1  UNL1        0.0000
     10 C          28.1652    1.3805    5.6808 C.ar    1  UNL1        0.0000
     11 H          28.3833    1.3130    6.7369 H       1  UNL1        0.0000
     12 C          28.3200    2.5868    5.0167 C.ar    1  UNL1        0.0000
     13 H          28.6602    3.4603    5.5531 H       1  UNL1        0.0000
     14 C          28.0370    2.6669    3.6643 C.ar    1  UNL1        0.0000
     15 H          28.1578    3.6012    3.1358 H       1  UNL1        0.0000
     16 C          27.6018    1.5448    2.9810 C.ar    1  UNL1        0.0000
     17 H          27.3797    1.5990    1.9252 H       1  UNL1        0.0000
     18 C          25.1893   -0.3359    1.4331 C.3     1  UNL1        0.0000
     19 C          24.2702   -0.1631    2.5876 C.ar    1  UNL1        0.0000
     20 C          24.2941    1.0065    3.3388 C.ar    1  UNL1        0.0000
     21 H          24.9906    1.7920    3.0868 H       1  UNL1        0.0000
     22 C          23.4249    1.1677    4.4028 C.ar    1  UNL1        0.0000
     23 H          23.4486    2.0810    4.9788 H       1  UNL1        0.0000
     24 C          22.5289    0.1639    4.7293 C.ar    1  UNL1        0.0000
     25 H          21.8519    0.2913    5.5611 H       1  UNL1        0.0000
     26 C          22.5025   -1.0034    3.9848 C.ar    1  UNL1        0.0000
     27 H          21.8050   -1.7892    4.2355 H       1  UNL1        0.0000
     28 C          23.3673   -1.1677    2.9173 C.ar    1  UNL1        0.0000
     29 H          23.3498   -2.0764    2.3356 H       1  UNL1        0.0000
     30 C          22.2661    1.4961    0.6317 C.3     1  UNL1        0.0000
     31 H          22.9082    2.3232    0.9181 H       1  UNL1        0.0000
     32 H          21.8641    1.0641    1.5417 H       1  UNL1        0.0000
     33 H          21.4343    1.9048    0.0683 H       1  UNL1        0.0000
     34 C          23.5791    0.9707   -2.1227 C.3     1  UNL1        0.0000
     35 H          23.8144    2.0280   -2.0380 H       1  UNL1        0.0000
     36 H          22.7343    0.8747   -2.7962 H       1  UNL1        0.0000
     37 H          24.4283    0.4640   -2.5781 H       1  UNL1        0.0000
     38 C          22.0900   -1.3503   -0.6092 C.3     1  UNL1        0.0000
     39 H          22.6012   -2.1153   -1.1864 H       1  UNL1        0.0000
     40 H          21.1713   -1.0989   -1.1292 H       1  UNL1        0.0000
     41 H          21.8141   -1.7745    0.3518 H       1  UNL1        0.0000
@<TRIPOS>BOND
     1    36    34    1
     2    37    34    1
     3    34    35    1
     4    34     1    1
     5    39    38    1
     6    40    38    1
     7    38     1    1
     8    38    41    1
     9     1     3    1
    10     1    30    1
    11    33    30    1
    12     3    18    1
    13    30    31    1
    14    30    32    1
    15    18     2    1
    16    18    19    1
    17     2     4    1
    18    17    16    1
    19    29    28    1
    20    19    28   ar
    21    19    20   ar
    22     5     4    1
    23     4     6    1
    24     4     7    1
    25    28    26   ar
    26    16     7   ar
    27    16    14   ar
    28    21    20    1
    29    15    14    1
    30    20    22   ar
    31     7     8   ar
    32    14    12   ar
    33    26    27    1
    34    26    24   ar
    35    22    24   ar
    36    22    23    1
    37    24    25    1
    38     8     9    1
    39     8    10   ar
    40    12    13    1
    41    12    10   ar
    42    10    11    1
