@<TRIPOS>MOLECULE
2,3
 24 24 0 0 0
SMALL
GASTEIGER

@<TRIPOS>ATOM
      1 SI          7.3492   18.8332    5.8116 Si      1  UNL1        0.0000
      2 N          10.1370   17.8222    3.2283 N.pl3   1  UNL1        0.5000
      3 N           8.6674   18.2587    4.8675 N.pl3   1  UNL1        0.5000
      4 C          10.8920   18.1805    2.1938 C.3     1  UNL1        0.0000
      5 H          11.5001   17.3907    1.7614 H       1  UNL1        0.0000
      6 C          10.9208   19.4605    1.6834 C.2     1  UNL1        0.0000
      7 H          11.5485   19.7086    0.8433 H       1  UNL1        0.0000
      8 C          10.1137   20.4284    2.2922 C.2     1  UNL1        0.0000
      9 H          10.1172   21.4433    1.9201 H       1  UNL1        0.0000
     10 C           9.3264   20.0885    3.3604 C.2     1  UNL1        0.0000
     11 H           8.7037   20.8103    3.8617 H       1  UNL1        0.0000
     12 C           9.3423   18.7536    3.8372 C.2     1  UNL1        0.0000
     13 C           7.9765   19.5183    7.4859 C.3     1  UNL1        0.0000
     14 H           8.5177   18.7473    8.0273 H       1  UNL1        0.0000
     15 H           7.1508   19.8475    8.1078 H       1  UNL1        0.0000
     16 H           8.6450   20.3643    7.3510 H       1  UNL1        0.0000
     17 C           6.2497   17.2818    6.0543 C.3     1  UNL1        0.0000
     18 H           5.6705   17.0582    5.1599 H       1  UNL1        0.0000
     19 H           5.5470   17.4199    6.8698 H       1  UNL1        0.0000
     20 H           6.8643   16.4103    6.2881 H       1  UNL1        0.0000
     21 C           6.2595   20.1657    4.9604 C.3     1  UNL1        0.0000
     22 H           6.6751   21.1617    5.0713 H       1  UNL1        0.0000
     23 H           5.2692   20.1812    5.4024 H       1  UNL1        0.0000
     24 H           6.1424   19.9687    3.8989 H       1  UNL1        0.0000
@<TRIPOS>BOND
     1     7     6    1
     2     6     4    1
     3     6     8    2
     4     5     4    1
     5     9     8    1
     6     4     2    1
     7     8    10    1
     8     2    12    1
     9    10    12    2
    10    10    11    1
    11    12     3    1
    12    24    21    1
    13     3     1    1
    14    21    22    1
    15    21    23    1
    16    21     1    1
    17    18    17    1
    18     1    17    1
    19     1    13    1
    20    17    20    1
    21    17    19    1
    22    16    13    1
    23    13    14    1
    24    13    15    1
