@<TRIPOS>MOLECULE
2,3
 24 24 0 0 0
SMALL
GASTEIGER

@<TRIPOS>ATOM
      1 SI          8.1837   13.2116    5.8114 Si      1  UNL1        0.0000
      2 N           7.6637   16.1312    3.2283 N.pl3   1  UNL1        0.5000
      3 N           8.0198   14.6409    4.8681 N.pl3   1  UNL1        0.5000
      4 C           6.9783   16.6037    2.1911 C.3     1  UNL1        0.0000
      5 H           7.3569   17.5264    1.7601 H       1  UNL1        0.0000
      6 C           5.8592   15.9851    1.6767 C.2     1  UNL1        0.0000
      7 H           5.3325   16.4028    0.8345 H       1  UNL1        0.0000
      8 C           5.4258   14.8011    2.2842 C.2     1  UNL1        0.0000
      9 H           4.5480   14.2939    1.9090 H       1  UNL1        0.0000
     10 C           6.1113   14.2916    3.3551 C.2     1  UNL1        0.0000
     11 H           5.7982   13.3906    3.8555 H       1  UNL1        0.0000
     12 C           7.2558   14.9760    3.8357 C.2     1  UNL1        0.0000
     13 C           7.2779   13.4117    7.4864 C.3     1  UNL1        0.0000
     14 H           7.6749   14.2662    8.0274 H       1  UNL1        0.0000
     15 H           7.4070   12.5321    8.1082 H       1  UNL1        0.0000
     16 H           6.2108   13.5667    7.3525 H       1  UNL1        0.0000
     17 C          10.0772   13.0356    6.0531 C.3     1  UNL1        0.0000
     18 H          10.5601   12.6457    5.1586 H       1  UNL1        0.0000
     19 H          10.3094   12.3582    6.8686 H       1  UNL1        0.0000
     20 H          10.5245   14.0037    6.2867 H       1  UNL1        0.0000
     21 C           7.5754   11.6009    4.9608 C.3     1  UNL1        0.0000
     22 H           6.5050   11.4624    5.0716 H       1  UNL1        0.0000
     23 H           8.0574   10.7360    5.4036 H       1  UNL1        0.0000
     24 H           7.8049   11.5975    3.8994 H       1  UNL1        0.0000
@<TRIPOS>BOND
     1     7     6    1
     2     6     4    1
     3     6     8    2
     4     5     4    1
     5     9     8    1
     6     4     2    1
     7     8    10    1
     8     2    12    1
     9    10    12    2
    10    10    11    1
    11    12     3    1
    12    24    21    1
    13     3     1    1
    14    21    22    1
    15    21    23    1
    16    21     1    1
    17    18    17    1
    18     1    17    1
    19     1    13    1
    20    17    20    1
    21    17    19    1
    22    16    13    1
    23    13    14    1
    24    13    15    1
