@<TRIPOS>MOLECULE
2,3
 24 24 0 0 0
SMALL
GASTEIGER

@<TRIPOS>ATOM
      1 SI         12.6338   16.7456    5.8095 Si      1  UNL1        0.0000
      2 N          10.3635   14.8347    3.2285 N.pl3   1  UNL1        0.5000
      3 N          11.4769   15.8900    4.8667 N.pl3   1  UNL1        0.5000
      4 C          10.2961   14.0023    2.1935 C.3     1  UNL1        0.0000
      5 H           9.3078   13.8693    1.7623 H       1  UNL1        0.0000
      6 C          11.3906   13.3395    1.6811 C.2     1  UNL1        0.0000
      7 H          11.2916   12.6724    0.8406 H       1  UNL1        0.0000
      8 C          12.6328   13.5559    2.2885 C.2     1  UNL1        0.0000
      9 H          13.5105   13.0472    1.9148 H       1  UNL1        0.0000
     10 C          12.7322   14.4070    3.3571 C.2     1  UNL1        0.0000
     11 H          13.6691   14.5864    3.8573 H       1  UNL1        0.0000
     12 C          11.5680   15.0588    3.8358 C.2     1  UNL1        0.0000
     13 C          12.9151   15.8602    7.4837 C.3     1  UNL1        0.0000
     14 H          11.9772   15.7765    8.0257 H       1  UNL1        0.0000
     15 H          13.6130   16.4113    8.1052 H       1  UNL1        0.0000
     16 H          13.3141   14.8585    7.3488 H       1  UNL1        0.0000
     17 C          11.8399   18.4733    6.0532 C.3     1  UNL1        0.0000
     18 H          11.9354   19.0872    5.1591 H       1  UNL1        0.0000
     19 H          12.3112   19.0123    6.8688 H       1  UNL1        0.0000
     20 H          10.7781   18.3766    6.2876 H       1  UNL1        0.0000
     21 C          14.3317   17.0242    4.9567 C.3     1  UNL1        0.0000
     22 H          14.9872   16.1668    5.0670 H       1  UNL1        0.0000
     23 H          14.8401   17.8745    5.3983 H       1  UNL1        0.0000
     24 H          14.2184   17.2241    3.8953 H       1  UNL1        0.0000
@<TRIPOS>BOND
     1     7     6    1
     2     6     4    1
     3     6     8    2
     4     5     4    1
     5     9     8    1
     6     4     2    1
     7     8    10    1
     8     2    12    1
     9    10    12    2
    10    10    11    1
    11    12     3    1
    12    24    21    1
    13     3     1    1
    14    21    22    1
    15    21    23    1
    16    21     1    1
    17    18    17    1
    18     1    17    1
    19     1    13    1
    20    17    20    1
    21    17    19    1
    22    16    13    1
    23    13    14    1
    24    13    15    1
