@<TRIPOS>MOLECULE
3,4
 40 40 0 0 0
SMALL
GASTEIGER

@<TRIPOS>ATOM
      1 SI          1.4926    0.2372    2.7317 Si      1  UNL1        0.0000
      2 SI          1.7653    3.3460    7.2906 Si      1  UNL1        0.0000
      3 N           1.1071    1.3360    3.9916 N.3     1  UNL1        0.0000
      4 N           1.1960    2.5236    5.8928 N.3     1  UNL1        0.0000
      5 C           1.7618    1.6506    5.0858 C.3     1  UNL1        0.0000
      6 C           3.0939    1.0626    5.3777 C.ar    1  UNL1        0.0000
      7 C           3.2516    0.0660    6.3317 C.ar    1  UNL1        0.0000
      8 C           4.5012   -0.4821    6.5628 C.ar    1  UNL1        0.0000
      9 C           5.6021   -0.0312    5.8544 C.ar    1  UNL1        0.0000
     10 C           5.4504    0.9691    4.9082 C.ar    1  UNL1        0.0000
     11 C           4.2008    1.5106    4.6662 C.ar    1  UNL1        0.0000
     12 C          -0.2230   -0.3162    2.0962 C.3     1  UNL1        0.0000
     13 C           2.4334    1.1732    1.3431 C.3     1  UNL1        0.0000
     14 C           2.4978   -1.3235    3.2091 C.3     1  UNL1        0.0000
     15 C           3.5219    2.9723    7.9573 C.3     1  UNL1        0.0000
     16 C           1.6970    5.1976    6.8008 C.3     1  UNL1        0.0000
     17 C           0.4996    2.9493    8.6770 C.3     1  UNL1        0.0000
     18 H           2.3921   -0.2809    6.8852 H       1  UNL1        0.0000
     19 H           4.6181   -1.2631    7.3002 H       1  UNL1        0.0000
     20 H           6.5769   -0.4579    6.0390 H       1  UNL1        0.0000
     21 H           6.3085    1.3252    4.3567 H       1  UNL1        0.0000
     22 H           4.0714    2.2884    3.9276 H       1  UNL1        0.0000
     23 H          -0.1479   -0.9136    1.1932 H       1  UNL1        0.0000
     24 H          -0.7442   -0.9073    2.8450 H       1  UNL1        0.0000
     25 H          -0.8323    0.5580    1.8784 H       1  UNL1        0.0000
     26 H           2.2448    0.7349    0.3686 H       1  UNL1        0.0000
     27 H           2.1218    2.2147    1.3062 H       1  UNL1        0.0000
     28 H           3.5070    1.1544    1.5057 H       1  UNL1        0.0000
     29 H           2.5000   -2.0449    2.3982 H       1  UNL1        0.0000
     30 H           3.5309   -1.0829    3.4388 H       1  UNL1        0.0000
     31 H           2.0770   -1.8129    4.0825 H       1  UNL1        0.0000
     32 H           3.7715    3.6462    8.7707 H       1  UNL1        0.0000
     33 H           3.6040    1.9580    8.3337 H       1  UNL1        0.0000
     34 H           4.2761    3.0926    7.1860 H       1  UNL1        0.0000
     35 H           2.5984    5.5025    6.2765 H       1  UNL1        0.0000
     36 H           0.8491    5.3696    6.1359 H       1  UNL1        0.0000
     37 H           1.5941    5.8426    7.6673 H       1  UNL1        0.0000
     38 H           0.4670    3.7401    9.4189 H       1  UNL1        0.0000
     39 H          -0.4982    2.8352    8.2587 H       1  UNL1        0.0000
     40 H           0.7457    2.0286    9.1976 H       1  UNL1        0.0000
@<TRIPOS>BOND
     1    26    13    1
     2    23    12    1
     3    27    13    1
     4    13    28    1
     5    13     1    1
     6    25    12    1
     7    12     1    1
     8    12    24    1
     9    29    14    1
    10     1    14    1
    11     1     3    1
    12    14    30    1
    13    14    31    1
    14    22    11    1
    15     3     5    1
    16    21    10    1
    17    11    10   ar
    18    11     6   ar
    19    10     9   ar
    20     5     6    1
    21     5     4    1
    22     6     7   ar
    23     9    20    1
    24     9     8   ar
    25     4     2    1
    26    36    16    1
    27    35    16    1
    28     7     8   ar
    29     7    18    1
    30     8    19    1
    31    16     2    1
    32    16    37    1
    33    34    15    1
    34     2    15    1
    35     2    17    1
    36    15    33    1
    37    15    32    1
    38    39    17    1
    39    17    40    1
    40    17    38    1
