@<TRIPOS>MOLECULE
1,16
 40 40 0 0 0
SMALL
GASTEIGER

@<TRIPOS>ATOM
      1 N          -1.9005    1.3353    4.8761 N.3     1  UNL1        0.0000
      2 SI         -2.2865    0.2376    6.1369 Si      1  UNL1        0.0000
      3 C          -0.5708   -0.3160    6.7717 C.3     1  UNL1        0.0000
      4 H          -0.6454   -0.9128    7.6752 H       1  UNL1        0.0000
      5 H          -0.0502   -0.9077    6.0230 H       1  UNL1        0.0000
      6 H           0.0388    0.5583    6.9885 H       1  UNL1        0.0000
      7 C          -3.2266    1.1737    7.5259 C.3     1  UNL1        0.0000
      8 H          -3.0366    0.7357    8.5003 H       1  UNL1        0.0000
      9 H          -2.9159    2.2155    7.5623 H       1  UNL1        0.0000
     10 H          -4.3004    1.1538    7.3644 H       1  UNL1        0.0000
     11 C          -3.2935   -1.3224    5.6608 C.3     1  UNL1        0.0000
     12 H          -3.2960   -2.0433    6.4722 H       1  UNL1        0.0000
     13 H          -4.3265   -1.0807    5.4318 H       1  UNL1        0.0000
     14 H          -2.8741   -1.8127    4.7874 H       1  UNL1        0.0000
     15 C          -2.5556    1.6501    3.7823 C.3     1  UNL1        0.0000
     16 N          -1.9898    2.5226    2.9748 N.3     1  UNL1        0.0000
     17 SI         -2.5601    3.3459    1.5778 Si      1  UNL1        0.0000
     18 C          -4.3171    2.9726    0.9117 C.3     1  UNL1        0.0000
     19 H          -4.5668    3.6468    0.0987 H       1  UNL1        0.0000
     20 H          -4.3995    1.9584    0.5351 H       1  UNL1        0.0000
     21 H          -5.0708    3.0928    1.6835 H       1  UNL1        0.0000
     22 C          -2.4928    5.1971    2.0690 C.3     1  UNL1        0.0000
     23 H          -3.3923    5.4999    2.5976 H       1  UNL1        0.0000
     24 H          -1.6423    5.3703    2.7304 H       1  UNL1        0.0000
     25 H          -2.3949    5.8431    1.2026 H       1  UNL1        0.0000
     26 C          -1.2944    2.9502    0.1913 C.3     1  UNL1        0.0000
     27 H          -1.2612    3.7417   -0.5498 H       1  UNL1        0.0000
     28 H          -0.2968    2.8351    0.6097 H       1  UNL1        0.0000
     29 H          -1.5409    2.0302   -0.3304 H       1  UNL1        0.0000
     30 C          -3.8880    1.0625    3.4910 C.ar    1  UNL1        0.0000
     31 C          -4.0462    0.0658    2.5372 C.ar    1  UNL1        0.0000
     32 C          -5.2960   -0.4822    2.3066 C.ar    1  UNL1        0.0000
     33 C          -6.3965   -0.0309    3.0154 C.ar    1  UNL1        0.0000
     34 C          -6.2444    0.9695    3.9614 C.ar    1  UNL1        0.0000
     35 C          -4.9947    1.5109    4.2028 C.ar    1  UNL1        0.0000
     36 H          -4.8649    2.2887    4.9413 H       1  UNL1        0.0000
     37 H          -7.1023    1.3258    4.5131 H       1  UNL1        0.0000
     38 H          -7.3715   -0.4576    2.8313 H       1  UNL1        0.0000
     39 H          -5.4132   -1.2632    1.5695 H       1  UNL1        0.0000
     40 H          -3.1869   -0.2812    1.9835 H       1  UNL1        0.0000
@<TRIPOS>BOND
     1    27    26    1
     2    29    26    1
     3    19    18    1
     4    26    28    1
     5    26    17    1
     6    20    18    1
     7    18    17    1
     8    18    21    1
     9    25    22    1
    10    39    32    1
    11    17    22    1
    12    17    16    1
    13    40    31    1
    14    22    23    1
    15    22    24    1
    16    32    31   ar
    17    32    33   ar
    18    31    30   ar
    19    38    33    1
    20    16    15    1
    21    33    34   ar
    22    30    15    1
    23    30    35   ar
    24    15     1    1
    25    34    35   ar
    26    34    37    1
    27    35    36    1
    28    14    11    1
    29     1     2    1
    30    13    11    1
    31    11     2    1
    32    11    12    1
    33     5     3    1
    34     2     3    1
    35     2     7    1
    36     3     6    1
    37     3     4    1
    38    10     7    1
    39     7     9    1
    40     7     8    1
