@<TRIPOS>MOLECULE
3,4
 40 40 0 0 0
SMALL
GASTEIGER

@<TRIPOS>ATOM
      1 SI         11.8813    3.4347    5.6852 Si      1  UNL1        0.0000
      2 SI          7.3531    0.5180    6.4165 Si      1  UNL1        0.0000
      3 N          10.6271    2.6474    6.5742 N.3     1  UNL1        0.0000
      4 N           8.7365    1.4502    6.9199 N.3     1  UNL1        0.0000
      5 C           9.5325    2.0962    6.0889 C.3     1  UNL1        0.0000
      6 C           9.2073    2.2237    4.6474 C.ar    1  UNL1        0.0000
      7 C           9.8410    1.4254    3.7037 C.ar    1  UNL1        0.0000
      8 C           9.5348    1.5598    2.3613 C.ar    1  UNL1        0.0000
      9 C           8.6039    2.5002    1.9516 C.ar    1  UNL1        0.0000
     10 C           7.9820    3.3087    2.8883 C.ar    1  UNL1        0.0000
     11 C           8.2799    3.1713    4.2325 C.ar    1  UNL1        0.0000
     12 C          12.6276    4.7380    6.8692 C.3     1  UNL1        0.0000
     13 C          13.1936    2.1193    5.1872 C.3     1  UNL1        0.0000
     14 C          11.4376    4.4019    4.0882 C.3     1  UNL1        0.0000
     15 C           6.9365   -0.6579    7.8579 C.3     1  UNL1        0.0000
     16 C           7.6118   -0.5391    4.8398 C.3     1  UNL1        0.0000
     17 C           5.7691    1.5429    6.0461 C.3     1  UNL1        0.0000
     18 H          10.5702    0.6984    4.0274 H       1  UNL1        0.0000
     19 H          10.0246    0.9317    1.6317 H       1  UNL1        0.0000
     20 H           8.3676    2.6061    0.9032 H       1  UNL1        0.0000
     21 H           7.2635    4.0495    2.5688 H       1  UNL1        0.0000
     22 H           7.8084    3.8051    4.9696 H       1  UNL1        0.0000
     23 H          12.3025    5.7391    6.6028 H       1  UNL1        0.0000
     24 H          12.3331    4.5481    7.8959 H       1  UNL1        0.0000
     25 H          13.7114    4.7340    6.8266 H       1  UNL1        0.0000
     26 H          13.2042    1.2725    5.8693 H       1  UNL1        0.0000
     27 H          13.0003    1.7335    4.1905 H       1  UNL1        0.0000
     28 H          14.1916    2.5456    5.1776 H       1  UNL1        0.0000
     29 H          10.5757    5.0481    4.2261 H       1  UNL1        0.0000
     30 H          12.2728    5.0317    3.7964 H       1  UNL1        0.0000
     31 H          11.2170    3.7454    3.2535 H       1  UNL1        0.0000
     32 H           7.8279   -1.0993    8.2902 H       1  UNL1        0.0000
     33 H           6.3862   -0.1580    8.6472 H       1  UNL1        0.0000
     34 H           6.3116   -1.4679    7.4976 H       1  UNL1        0.0000
     35 H           8.6245   -0.9162    4.7666 H       1  UNL1        0.0000
     36 H           6.9456   -1.3957    4.8525 H       1  UNL1        0.0000
     37 H           7.4016    0.0255    3.9367 H       1  UNL1        0.0000
     38 H           5.3973    2.0697    6.9182 H       1  UNL1        0.0000
     39 H           5.9227    2.2706    5.2558 H       1  UNL1        0.0000
     40 H           4.9825    0.8709    5.7172 H       1  UNL1        0.0000
@<TRIPOS>BOND
     1    20     9    1
     2    19     8    1
     3     9     8   ar
     4     9    10   ar
     5     8     7   ar
     6    21    10    1
     7    10    11   ar
     8    31    14    1
     9     7    18    1
    10     7     6   ar
    11    30    14    1
    12    37    16    1
    13    14    29    1
    14    14     1    1
    15    27    13    1
    16    11     6   ar
    17    11    22    1
    18     6     5    1
    19    35    16    1
    20    16    36    1
    21    16     2    1
    22    28    13    1
    23    13     1    1
    24    13    26    1
    25    39    17    1
    26     1     3    1
    27     1    12    1
    28    40    17    1
    29    17     2    1
    30    17    38    1
    31     5     3    1
    32     5     4    1
    33     2     4    1
    34     2    15    1
    35    23    12    1
    36    25    12    1
    37    12    24    1
    38    34    15    1
    39    15    32    1
    40    15    33    1
