@<TRIPOS>MOLECULE
3,4
 40 40 0 0 0
SMALL
GASTEIGER

@<TRIPOS>ATOM
      1 SI          8.4018    5.2618    8.6322 Si      1  UNL1        0.0000
      2 SI         13.1514    3.1721   10.4187 Si      1  UNL1        0.0000
      3 N           9.6258    4.1390    9.0701 N.3     1  UNL1        0.0000
      4 N          11.5136    3.2167    9.8548 N.3     1  UNL1        0.0000
      5 C          10.7258    4.2726    9.7811 C.3     1  UNL1        0.0000
      6 C          11.0365    5.5453   10.4761 C.ar    1  UNL1        0.0000
      7 C          11.2555    6.7172    9.7629 C.ar    1  UNL1        0.0000
      8 C          11.5239    7.8992   10.4298 C.ar    1  UNL1        0.0000
      9 C          11.5544    7.9260   11.8139 C.ar    1  UNL1        0.0000
     10 C          11.3343    6.7603   12.5286 C.ar    1  UNL1        0.0000
     11 C          11.0905    5.5716   11.8644 C.ar    1  UNL1        0.0000
     12 C           8.8689    6.1306    6.9834 C.3     1  UNL1        0.0000
     13 C           7.9035    6.5748    9.9333 C.3     1  UNL1        0.0000
     14 C           6.9188    4.1067    8.2698 C.3     1  UNL1        0.0000
     15 C          13.2882    2.2071   12.0632 C.3     1  UNL1        0.0000
     16 C          14.0626    4.8415   10.6685 C.3     1  UNL1        0.0000
     17 C          14.1585    2.2596    9.0609 C.3     1  UNL1        0.0000
     18 H          11.2288    6.6941    8.6848 H       1  UNL1        0.0000
     19 H          11.7063    8.8041    9.8682 H       1  UNL1        0.0000
     20 H          11.7527    8.8519   12.3333 H       1  UNL1        0.0000
     21 H          11.3594    6.7755   13.6083 H       1  UNL1        0.0000
     22 H          10.9286    4.6571   12.4130 H       1  UNL1        0.0000
     23 H           9.4523    7.0325    7.1402 H       1  UNL1        0.0000
     24 H           9.4542    5.4585    6.3602 H       1  UNL1        0.0000
     25 H           7.9821    6.4178    6.4269 H       1  UNL1        0.0000
     26 H           8.5666    7.4331    9.9122 H       1  UNL1        0.0000
     27 H           6.8943    6.9331    9.7575 H       1  UNL1        0.0000
     28 H           7.9411    6.1643   10.9374 H       1  UNL1        0.0000
     29 H           6.3257    3.8973    9.1556 H       1  UNL1        0.0000
     30 H           6.2461    4.5401    7.5360 H       1  UNL1        0.0000
     31 H           7.2948    3.1595    7.8781 H       1  UNL1        0.0000
     32 H          12.7967    1.2418   12.0041 H       1  UNL1        0.0000
     33 H          14.3308    2.0347   12.3093 H       1  UNL1        0.0000
     34 H          12.8406    2.7523   12.8875 H       1  UNL1        0.0000
     35 H          13.7192    5.3703   11.5508 H       1  UNL1        0.0000
     36 H          15.1281    4.6689   10.7869 H       1  UNL1        0.0000
     37 H          13.9316    5.5061    9.8201 H       1  UNL1        0.0000
     38 H          14.2782    1.2065    9.2928 H       1  UNL1        0.0000
     39 H          13.6801    2.3432    8.0884 H       1  UNL1        0.0000
     40 H          15.1558    2.6795    8.9750 H       1  UNL1        0.0000
@<TRIPOS>BOND
     1    24    12    1
     2    25    12    1
     3    12    23    1
     4    12     1    1
     5    30    14    1
     6    31    14    1
     7    39    17    1
     8    14     1    1
     9    14    29    1
    10     1     3    1
    11     1    13    1
    12    18     7    1
    13    40    17    1
    14    17    38    1
    15    17     2    1
    16     3     5    1
    17    27    13    1
    18     7     8   ar
    19     7     6   ar
    20     5     4    1
    21     5     6    1
    22    37    16    1
    23     4     2    1
    24    19     8    1
    25    26    13    1
    26    13    28    1
    27     2    16    1
    28     2    15    1
    29     8     9   ar
    30     6    11   ar
    31    16    36    1
    32    16    35    1
    33     9    20    1
    34     9    10   ar
    35    11    22    1
    36    11    10   ar
    37    32    15    1
    38    15    33    1
    39    15    34    1
    40    10    21    1
