@<TRIPOS>MOLECULE
1,2
 52 53 0 0 0
SMALL
GASTEIGER

@<TRIPOS>ATOM
      1 N           8.9176    0.5371   18.3104 N.3     1  UNL1        0.0000
      2 N           9.9846   -0.0237   20.1040 N.3     1  UNL1        0.0000
      3 C          10.0511    0.6739   18.9779 C.3     1  UNL1        0.0000
      4 C          11.1741    1.4437   18.5722 C.1     1  UNL1        0.0000
      5 C          12.1484    2.0895   18.2597 C.1     1  UNL1        0.0000
      6 SI         13.6717    3.0621   17.8240 Si      1  UNL1        0.0000
      7 C          15.1369    2.2491   18.7342 C.3     1  UNL1        0.0000
      8 H          14.9851    2.2628   19.8094 H       1  UNL1        0.0000
      9 H          16.0702    2.7649   18.5270 H       1  UNL1        0.0000
     10 H          15.2603    1.2123   18.4353 H       1  UNL1        0.0000
     11 C          13.9093    2.9727   15.9345 C.3     1  UNL1        0.0000
     12 H          14.0131    1.9454   15.5979 H       1  UNL1        0.0000
     13 H          14.7982    3.5130   15.6212 H       1  UNL1        0.0000
     14 H          13.0612    3.4045   15.4113 H       1  UNL1        0.0000
     15 C          13.4225    4.8615   18.3960 C.3     1  UNL1        0.0000
     16 H          12.5697    5.3161   17.9007 H       1  UNL1        0.0000
     17 H          14.2943    5.4727   18.1797 H       1  UNL1        0.0000
     18 H          13.2418    4.9106   19.4655 H       1  UNL1        0.0000
     19 C           8.6105    1.2791   17.1171 C.3     1  UNL1        0.0000
     20 H           9.3900    2.0415   16.9569 H       1  UNL1        0.0000
     21 C           7.2560    1.9753   17.2788 C.3     1  UNL1        0.0000
     22 H           7.3032    2.6502   18.1355 H       1  UNL1        0.0000
     23 H           6.5003    1.2149   17.4924 H       1  UNL1        0.0000
     24 C           6.8838    2.7374   16.0128 C.3     1  UNL1        0.0000
     25 H           5.9081    3.2099   16.1423 H       1  UNL1        0.0000
     26 H           7.6175    3.5276   15.8379 H       1  UNL1        0.0000
     27 C           6.8541    1.7994   14.8096 C.3     1  UNL1        0.0000
     28 H           6.0780    1.0446   14.9574 H       1  UNL1        0.0000
     29 H           6.6071    2.3596   13.9052 H       1  UNL1        0.0000
     30 C           8.2045    1.1097   14.6404 C.3     1  UNL1        0.0000
     31 H           8.9716    1.8609   14.4389 H       1  UNL1        0.0000
     32 H           8.1723    0.4272   13.7880 H       1  UNL1        0.0000
     33 C           8.5760    0.3405   15.9032 C.3     1  UNL1        0.0000
     34 H           9.5538   -0.1324   15.7862 H       1  UNL1        0.0000
     35 H           7.8415   -0.4456   16.0906 H       1  UNL1        0.0000
     36 C          10.9647    0.1286   21.1491 C.3     1  UNL1        0.0000
     37 H          11.3215    1.1719   21.1705 H       1  UNL1        0.0000
     38 C          12.1668   -0.7938   20.9018 C.3     1  UNL1        0.0000
     39 H          12.6186   -0.5444   19.9395 H       1  UNL1        0.0000
     40 H          11.8149   -1.8267   20.8556 H       1  UNL1        0.0000
     41 C          13.1874   -0.6381   22.0238 C.3     1  UNL1        0.0000
     42 H          14.0345   -1.3049   21.8480 H       1  UNL1        0.0000
     43 H          13.5628    0.3876   22.0248 H       1  UNL1        0.0000
     44 C          12.5532   -0.9462   23.3773 C.3     1  UNL1        0.0000
     45 H          12.2344   -1.9912   23.3970 H       1  UNL1        0.0000
     46 H          13.2889   -0.8068   24.1724 H       1  UNL1        0.0000
     47 C          11.3461   -0.0443   23.6210 C.3     1  UNL1        0.0000
     48 H          11.6732    0.9964   23.6673 H       1  UNL1        0.0000
     49 H          10.8832   -0.2922   24.5785 H       1  UNL1        0.0000
     50 C          10.3276   -0.2022   22.4982 C.3     1  UNL1        0.0000
     51 H           9.9681   -1.2333   22.4692 H       1  UNL1        0.0000
     52 H           9.4729    0.4602   22.6554 H       1  UNL1        0.0000
@<TRIPOS>BOND
     1    32    30    1
     2    29    27    1
     3    31    30    1
     4    30    27    1
     5    30    33    1
     6    27    28    1
     7    27    24    1
     8    14    11    1
     9    12    11    1
    10    13    11    1
    11    34    33    1
    12    26    24    1
    13    33    35    1
    14    33    19    1
    15    11     6    1
    16    24    25    1
    17    24    21    1
    18    20    19    1
    19    19    21    1
    20    19     1    1
    21    21    23    1
    22    21    22    1
    23     6     5    1
    24     6    15    1
    25     6     7    1
    26    16    15    1
    27    17    15    1
    28     5     4    3
    29     1     3    1
    30    15    18    1
    31    10     7    1
    32     9     7    1
    33     4     3    1
    34     7     8    1
    35     3     2    1
    36    39    38    1
    37     2    36    1
    38    40    38    1
    39    38    36    1
    40    38    41    1
    41    36    37    1
    42    36    50    1
    43    42    41    1
    44    41    43    1
    45    41    44    1
    46    51    50    1
    47    50    52    1
    48    50    47    1
    49    44    45    1
    50    44    47    1
    51    44    46    1
    52    47    48    1
    53    47    49    1
