@<TRIPOS>MOLECULE
1,2
 38 37 0 0 0
SMALL
GASTEIGER

@<TRIPOS>ATOM
      1 N          -0.5324    7.1633    4.4025 N.3     1  UNL1        0.0000
      2 N          -0.9225    5.1283    5.0097 N.3     1  UNL1        0.0000
      3 C          -1.2259    6.0715    4.1289 C.3     1  UNL1        0.0000
      4 C          -2.1393    5.9138    3.0516 C.1     1  UNL1        0.0000
      5 C          -2.9196    5.7520    2.1413 C.1     1  UNL1        0.0000
      6 SI         -4.0774    5.4692    0.7125 Si      1  UNL1        0.0000
      7 C          -3.5589    3.8471   -0.1407 C.3     1  UNL1        0.0000
      8 H          -2.5238    3.8912   -0.4657 H       1  UNL1        0.0000
      9 H          -4.1712    3.6419   -1.0143 H       1  UNL1        0.0000
     10 H          -3.6533    3.0015    0.5343 H       1  UNL1        0.0000
     11 C          -5.8430    5.3350    1.4204 C.3     1  UNL1        0.0000
     12 H          -5.9275    4.5008    2.1107 H       1  UNL1        0.0000
     13 H          -6.5748    5.1848    0.6318 H       1  UNL1        0.0000
     14 H          -6.1203    6.2361    1.9594 H       1  UNL1        0.0000
     15 C          -3.9372    6.9555   -0.4715 C.3     1  UNL1        0.0000
     16 H          -4.1944    7.8840    0.0299 H       1  UNL1        0.0000
     17 H          -4.6018    6.8469   -1.3240 H       1  UNL1        0.0000
     18 H          -2.9260    7.0585   -0.8535 H       1  UNL1        0.0000
     19 C          -0.5137    8.3199    3.5414 C.3     1  UNL1        0.0000
     20 H          -0.9134    8.0353    2.5549 H       1  UNL1        0.0000
     21 C          -1.3984    9.4210    4.1357 C.3     1  UNL1        0.0000
     22 H          -2.4232    9.0680    4.2253 H       1  UNL1        0.0000
     23 H          -1.3831   10.3008    3.4978 H       1  UNL1        0.0000
     24 H          -1.0378    9.6947    5.1245 H       1  UNL1        0.0000
     25 C           0.9275    8.7985    3.3731 C.3     1  UNL1        0.0000
     26 H           1.3148    9.1598    4.3234 H       1  UNL1        0.0000
     27 H           0.9759    9.6032    2.6443 H       1  UNL1        0.0000
     28 H           1.5484    7.9721    3.0327 H       1  UNL1        0.0000
     29 C          -1.3213    3.7520    4.8277 C.3     1  UNL1        0.0000
     30 H          -1.3542    3.5234    3.7497 H       1  UNL1        0.0000
     31 C          -0.2885    2.8459    5.4926 C.3     1  UNL1        0.0000
     32 H           0.7039    3.0971    5.1209 H       1  UNL1        0.0000
     33 H          -0.4967    1.8044    5.2625 H       1  UNL1        0.0000
     34 H          -0.3132    2.9803    6.5718 H       1  UNL1        0.0000
     35 C          -2.7168    3.5328    5.4223 C.3     1  UNL1        0.0000
     36 H          -2.7134    3.7813    6.4812 H       1  UNL1        0.0000
     37 H          -3.0137    2.4941    5.3033 H       1  UNL1        0.0000
     38 H          -3.4411    4.1670    4.9162 H       1  UNL1        0.0000
@<TRIPOS>BOND
     1    17    15    1
     2     9     7    1
     3    18    15    1
     4    15    16    1
     5    15     6    1
     6     8     7    1
     7     7    10    1
     8     7     6    1
     9    13    11    1
    10     6    11    1
    11     6     5    1
    12    11    14    1
    13    11    12    1
    14     5     4    3
    15    20    19    1
    16    27    25    1
    17    28    25    1
    18     4     3    1
    19    25    19    1
    20    25    26    1
    21    23    21    1
    22    19    21    1
    23    19     1    1
    24    30    29    1
    25     3     1    1
    26     3     2    1
    27    21    22    1
    28    21    24    1
    29    29     2    1
    30    29    35    1
    31    29    31    1
    32    38    35    1
    33    32    31    1
    34    33    31    1
    35    37    35    1
    36    35    36    1
    37    31    34    1
