@<TRIPOS>MOLECULE
3,4
 38 38 0 0 0
SMALL
GASTEIGER

@<TRIPOS>ATOM
      1 SI          2.3609    4.0967    3.8892 Si      1  UNL1        0.0000
      2 SI          3.0077    8.4794    0.4624 Si      1  UNL1        0.0000
      3 N           2.2717    5.8141    3.6448 N.pl3   1  UNL1        0.0000
      4 N           2.5686    7.8299    2.0138 N.pl3   1  UNL1        0.0000
      5 C           3.1655    6.7637    4.0468 C.ar    1  UNL1        0.0000
      6 C           3.3289    7.8720    3.1485 C.ar    1  UNL1        0.0000
      7 C           4.2600    8.8656    3.4684 C.ar    1  UNL1        0.0000
      8 H           4.3891    9.6941    2.7874 H       1  UNL1        0.0000
      9 C           5.0037    8.7867    4.6272 C.ar    1  UNL1        0.0000
     10 H           5.7179    9.5629    4.8587 H       1  UNL1        0.0000
     11 C           4.8449    7.7118    5.4962 C.ar    1  UNL1        0.0000
     12 H           5.4360    7.6590    6.3983 H       1  UNL1        0.0000
     13 C           3.9415    6.7105    5.2088 C.ar    1  UNL1        0.0000
     14 H           3.8221    5.8660    5.8720 H       1  UNL1        0.0000
     15 C           2.0867    3.5115    5.6941 C.3     1  UNL1        0.0000
     16 H           2.9738    3.6361    6.3085 H       1  UNL1        0.0000
     17 H           1.8285    2.4573    5.7124 H       1  UNL1        0.0000
     18 H           1.2743    4.0527    6.1707 H       1  UNL1        0.0000
     19 C           4.0664    3.4872    3.2737 C.3     1  UNL1        0.0000
     20 H           4.2170    3.7334    2.2263 H       1  UNL1        0.0000
     21 H           4.1585    2.4113    3.3778 H       1  UNL1        0.0000
     22 H           4.8751    3.9451    3.8363 H       1  UNL1        0.0000
     23 C           0.9226    3.4952    2.7908 C.3     1  UNL1        0.0000
     24 H          -0.0224    3.9109    3.1383 H       1  UNL1        0.0000
     25 H           0.8327    2.4143    2.7942 H       1  UNL1        0.0000
     26 H           1.0590    3.8150    1.7591 H       1  UNL1        0.0000
     27 C           3.0053   10.3952    0.3740 C.3     1  UNL1        0.0000
     28 H           2.2323   10.8228    1.0067 H       1  UNL1        0.0000
     29 H           2.8176   10.7286   -0.6419 H       1  UNL1        0.0000
     30 H           3.9564   10.8210    0.6809 H       1  UNL1        0.0000
     31 C           4.7354    7.8154   -0.0187 C.3     1  UNL1        0.0000
     32 H           5.4905    8.1213    0.6998 H       1  UNL1        0.0000
     33 H           5.0374    8.1833   -0.9937 H       1  UNL1        0.0000
     34 H           4.7430    6.7298   -0.0573 H       1  UNL1        0.0000
     35 C           1.6322    7.7817   -0.6571 C.3     1  UNL1        0.0000
     36 H           1.7121    6.7011   -0.7462 H       1  UNL1        0.0000
     37 H           1.6784    8.1981   -1.6576 H       1  UNL1        0.0000
     38 H           0.6512    8.0092   -0.2412 H       1  UNL1        0.0000
@<TRIPOS>BOND
     1    37    35    1
     2    33    31    1
     3    36    35    1
     4    35    38    1
     5    35     2    1
     6    29    27    1
     7    34    31    1
     8    31     2    1
     9    31    32    1
    10    27     2    1
    11    27    30    1
    12    27    28    1
    13     2     4    1
    14    26    23    1
    15     4     6    1
    16    20    19    1
    17     8     7    1
    18    23    25    1
    19    23    24    1
    20    23     1    1
    21     6     7   ar
    22     6     5   ar
    23    19    21    1
    24    19    22    1
    25    19     1    1
    26     7     9   ar
    27     3     1    1
    28     3     5    1
    29     1    15    1
    30     5    13   ar
    31     9    10    1
    32     9    11   ar
    33    13    11   ar
    34    13    14    1
    35    11    12    1
    36    15    17    1
    37    15    18    1
    38    15    16    1
