@<TRIPOS>MOLECULE
3,4
 38 38 0 0 0
SMALL
GASTEIGER

@<TRIPOS>ATOM
      1 SI         17.9812    3.1068    2.6502 Si      1  UNL1        0.0000
      2 SI         17.9804   -1.9501    3.7511 Si      1  UNL1        0.0000
      3 N          16.8963    1.7591    2.4993 N.pl3   1  UNL1        0.0000
      4 N          16.8975   -0.7882    3.0487 N.pl3   1  UNL1        0.0000
      5 C          16.8173    0.9272    1.4158 C.ar    1  UNL1        0.0000
      6 C          16.8196   -0.4776    1.7184 C.ar    1  UNL1        0.0000
      7 C          16.7578   -1.3990    0.6686 C.ar    1  UNL1        0.0000
      8 H          16.7704   -2.4532    0.9046 H       1  UNL1        0.0000
      9 C          16.6871   -0.9633   -0.6376 C.ar    1  UNL1        0.0000
     10 H          16.6370   -1.6837   -1.4405 H       1  UNL1        0.0000
     11 C          16.6845    0.3979   -0.9310 C.ar    1  UNL1        0.0000
     12 H          16.6325    0.7232   -1.9594 H       1  UNL1        0.0000
     13 C          16.7528    1.3335    0.0794 C.ar    1  UNL1        0.0000
     14 H          16.7617    2.3912   -0.1403 H       1  UNL1        0.0000
     15 C          17.7397    3.6454    4.4651 C.3     1  UNL1        0.0000
     16 H          17.1486    4.5520    4.5322 H       1  UNL1        0.0000
     17 H          18.6897    3.8403    4.9515 H       1  UNL1        0.0000
     18 H          17.2216    2.8659    5.0268 H       1  UNL1        0.0000
     19 C          17.7015    4.5671    1.4477 C.3     1  UNL1        0.0000
     20 H          18.1183    4.3645    0.4650 H       1  UNL1        0.0000
     21 H          18.1897    5.4595    1.8267 H       1  UNL1        0.0000
     22 H          16.6484    4.7985    1.3245 H       1  UNL1        0.0000
     23 C          19.7503    2.4352    2.3442 C.3     1  UNL1        0.0000
     24 H          20.0649    1.7668    3.1404 H       1  UNL1        0.0000
     25 H          20.4724    3.2433    2.2878 H       1  UNL1        0.0000
     26 H          19.8012    1.8799    1.4110 H       1  UNL1        0.0000
     27 C          19.7537   -1.4581    3.2145 C.3     1  UNL1        0.0000
     28 H          19.8146   -1.3276    2.1370 H       1  UNL1        0.0000
     29 H          20.4739   -2.2193    3.4965 H       1  UNL1        0.0000
     30 H          20.0632   -0.5247    3.6756 H       1  UNL1        0.0000
     31 C          17.7087   -3.7757    3.2512 C.3     1  UNL1        0.0000
     32 H          16.6562   -4.0383    3.2218 H       1  UNL1        0.0000
     33 H          18.1893   -4.4337    3.9686 H       1  UNL1        0.0000
     34 H          18.1369   -3.9937    2.2767 H       1  UNL1        0.0000
     35 C          17.7212   -1.6930    5.6246 C.3     1  UNL1        0.0000
     36 H          17.1881   -0.7586    5.8105 H       1  UNL1        0.0000
     37 H          18.6670   -1.6553    6.1547 H       1  UNL1        0.0000
     38 H          17.1391   -2.4993    6.0570 H       1  UNL1        0.0000
@<TRIPOS>BOND
     1    12    11    1
     2    10     9    1
     3    11     9   ar
     4    11    13   ar
     5     9     7   ar
     6    14    13    1
     7    13     5   ar
     8    20    19    1
     9     7     8    1
    10     7     6   ar
    11    22    19    1
    12    26    23    1
    13     5     6   ar
    14     5     3    1
    15    19    21    1
    16    19     1    1
    17     6     4    1
    18    28    27    1
    19    34    31    1
    20    25    23    1
    21    23     1    1
    22    23    24    1
    23     3     1    1
    24     1    15    1
    25     4     2    1
    26    27    29    1
    27    27    30    1
    28    27     2    1
    29    32    31    1
    30    31     2    1
    31    31    33    1
    32     2    35    1
    33    15    16    1
    34    15    17    1
    35    15    18    1
    36    35    36    1
    37    35    38    1
    38    35    37    1
