@<TRIPOS>MOLECULE
4,5
 44 44 0 0 0
SMALL
GASTEIGER

@<TRIPOS>ATOM
      1 SI          3.2051    0.2588   -0.0969 Si      1  UNL1        0.0000
      2 SI          2.2715    5.0499    2.4534 Si      1  UNL1        0.0000
      3 O          -0.0696    4.7503   -3.3984 O.3     1  UNL1        0.0000
      4 N           3.0434    1.4314    1.1568 N.3     1  UNL1        0.0000
      5 N           2.7759    3.4246    2.1652 N.3     1  UNL1        0.0000
      6 C           2.6006    2.6696    1.1008 C.3     1  UNL1        0.0000
      7 C           1.9255    3.2034   -0.1039 C.ar    1  UNL1        0.0000
      8 C           0.5371    3.2393   -0.1727 C.ar    1  UNL1        0.0000
      9 C          -0.0936    3.7553   -1.2838 C.ar    1  UNL1        0.0000
     10 C           0.6518    4.2557   -2.3528 C.ar    1  UNL1        0.0000
     11 C           2.0399    4.2203   -2.2867 C.ar    1  UNL1        0.0000
     12 C           2.6643    3.6931   -1.1686 C.ar    1  UNL1        0.0000
     13 C           0.6230    5.2717   -4.5058 C.3     1  UNL1        0.0000
     14 C           5.0432    0.3137   -0.6426 C.3     1  UNL1        0.0000
     15 C           2.0876    0.3850   -1.6427 C.3     1  UNL1        0.0000
     16 C           2.8184   -1.4046    0.7635 C.3     1  UNL1        0.0000
     17 C           2.2747    6.2605    0.9722 C.3     1  UNL1        0.0000
     18 C           0.5164    5.0619    3.2196 C.3     1  UNL1        0.0000
     19 C           3.5615    5.6546    3.7367 C.3     1  UNL1        0.0000
     20 H          -0.0452    2.8542    0.6509 H       1  UNL1        0.0000
     21 H          -1.1696    3.7866   -1.3531 H       1  UNL1        0.0000
     22 H           2.6450    4.5989   -3.0957 H       1  UNL1        0.0000
     23 H           3.7424    3.6677   -1.1212 H       1  UNL1        0.0000
     24 H           1.2500    6.1238   -4.2238 H       1  UNL1        0.0000
     25 H          -0.1443    5.6055   -5.2025 H       1  UNL1        0.0000
     26 H           1.2419    4.5088   -4.9893 H       1  UNL1        0.0000
     27 H           5.6780    0.4913    0.2232 H       1  UNL1        0.0000
     28 H           5.3567   -0.6149   -1.1092 H       1  UNL1        0.0000
     29 H           5.2261    1.1141   -1.3538 H       1  UNL1        0.0000
     30 H           2.1381   -0.5288   -2.2262 H       1  UNL1        0.0000
     31 H           2.3766    1.2073   -2.2883 H       1  UNL1        0.0000
     32 H           1.0505    0.5422   -1.3645 H       1  UNL1        0.0000
     33 H           3.1264   -2.2452    0.1503 H       1  UNL1        0.0000
     34 H           1.7550   -1.5169    0.9548 H       1  UNL1        0.0000
     35 H           3.3407   -1.4766    1.7141 H       1  UNL1        0.0000
     36 H           3.2035    6.2028    0.4135 H       1  UNL1        0.0000
     37 H           2.1586    7.2842    1.3144 H       1  UNL1        0.0000
     38 H           1.4642    6.0489    0.2823 H       1  UNL1        0.0000
     39 H           0.2831    6.0313    3.6476 H       1  UNL1        0.0000
     40 H          -0.2413    4.8437    2.4732 H       1  UNL1        0.0000
     41 H           0.4288    4.3199    4.0078 H       1  UNL1        0.0000
     42 H           4.1764    4.8203    4.0805 H       1  UNL1        0.0000
     43 H           4.2241    6.4028    3.3139 H       1  UNL1        0.0000
     44 H           3.0829    6.1004    4.6022 H       1  UNL1        0.0000
@<TRIPOS>BOND
     1    25    13    1
     2    26    13    1
     3    13    24    1
     4    13     3    1
     5     3    10    1
     6    22    11    1
     7    10    11   ar
     8    10     9   ar
     9    31    15    1
    10    11    12   ar
    11    30    15    1
    12    15    32    1
    13    15     1    1
    14    29    14    1
    15    21     9    1
    16     9     8   ar
    17    12    23    1
    18    12     7   ar
    19    28    14    1
    20    14     1    1
    21    14    27    1
    22     8     7   ar
    23     8    20    1
    24     7     6    1
    25     1    16    1
    26     1     4    1
    27    33    16    1
    28    38    17    1
    29    36    17    1
    30    16    34    1
    31    16    35    1
    32    17    37    1
    33    17     2    1
    34     6     4    1
    35     6     5    1
    36     5     2    1
    37     2    18    1
    38     2    19    1
    39    40    18    1
    40    18    39    1
    41    18    41    1
    42    43    19    1
    43    19    42    1
    44    19    44    1
