@<TRIPOS>MOLECULE
4,5
 44 44 0 0 0
SMALL
GASTEIGER

@<TRIPOS>ATOM
      1 SI          5.9471   -1.6446    3.5798 Si      1  UNL1        0.0000
      2 SI          7.2170    3.5011    2.1996 Si      1  UNL1        0.0000
      3 O          12.0811   -0.5712    2.7869 O.3     1  UNL1        0.0000
      4 N           5.7277    0.0560    3.3393 N.3     1  UNL1        0.0000
      5 N           6.2946    2.1844    2.8403 N.3     1  UNL1        0.0000
      6 C           6.6613    0.9324    3.0150 C.3     1  UNL1        0.0000
      7 C           8.0796    0.5254    2.9048 C.ar    1  UNL1        0.0000
      8 C           8.5600   -0.1465    1.7930 C.ar    1  UNL1        0.0000
      9 C           9.8890   -0.5278    1.7108 C.ar    1  UNL1        0.0000
     10 C          10.7590   -0.2414    2.7563 C.ar    1  UNL1        0.0000
     11 C          10.2762    0.4376    3.8769 C.ar    1  UNL1        0.0000
     12 C           8.9546    0.8197    3.9462 C.ar    1  UNL1        0.0000
     13 C          12.6310   -1.2482    1.6835 C.3     1  UNL1        0.0000
     14 C           4.2529   -2.1676    4.3060 C.3     1  UNL1        0.0000
     15 C           7.3350   -2.1277    4.8059 C.3     1  UNL1        0.0000
     16 C           6.2590   -2.6223    1.9609 C.3     1  UNL1        0.0000
     17 C           7.6503    4.7330    3.5994 C.3     1  UNL1        0.0000
     18 C           8.8407    3.1081    1.2660 C.3     1  UNL1        0.0000
     19 C           6.0371    4.3288    0.9420 C.3     1  UNL1        0.0000
     20 H           7.8930   -0.3653    0.9735 H       1  UNL1        0.0000
     21 H          10.2319   -1.0436    0.8275 H       1  UNL1        0.0000
     22 H          10.9645    0.6535    4.6788 H       1  UNL1        0.0000
     23 H           8.5858    1.3458    4.8138 H       1  UNL1        0.0000
     24 H          12.1518   -2.2202    1.5274 H       1  UNL1        0.0000
     25 H          12.5544   -0.6534    0.7675 H       1  UNL1        0.0000
     26 H          13.6815   -1.4009    1.9256 H       1  UNL1        0.0000
     27 H           3.8491   -3.0320    3.7894 H       1  UNL1        0.0000
     28 H           4.3378   -2.4342    5.3542 H       1  UNL1        0.0000
     29 H           3.5289   -1.3532    4.2247 H       1  UNL1        0.0000
     30 H           8.3177   -1.9774    4.3700 H       1  UNL1        0.0000
     31 H           7.2536   -3.1738    5.0837 H       1  UNL1        0.0000
     32 H           7.2900   -1.5412    5.7180 H       1  UNL1        0.0000
     33 H           5.7579   -2.1642    1.1141 H       1  UNL1        0.0000
     34 H           7.3187   -2.6794    1.7330 H       1  UNL1        0.0000
     35 H           5.8907   -3.6397    2.0497 H       1  UNL1        0.0000
     36 H           8.2760    4.2747    4.3593 H       1  UNL1        0.0000
     37 H           8.1932    5.5834    3.1996 H       1  UNL1        0.0000
     38 H           6.7596    5.1138    4.0888 H       1  UNL1        0.0000
     39 H           9.6173    2.7518    1.9346 H       1  UNL1        0.0000
     40 H           8.6922    2.3491    0.5045 H       1  UNL1        0.0000
     41 H           9.2142    4.0003    0.7725 H       1  UNL1        0.0000
     42 H           6.0459    3.8019   -0.0081 H       1  UNL1        0.0000
     43 H           5.0157    4.3295    1.3143 H       1  UNL1        0.0000
     44 H           6.3242    5.3572    0.7482 H       1  UNL1        0.0000
@<TRIPOS>BOND
     1    42    19    1
     2    40    18    1
     3    44    19    1
     4    25    13    1
     5    41    18    1
     6    21     9    1
     7    19    43    1
     8    19     2    1
     9    20     8    1
    10    33    16    1
    11    18    39    1
    12    18     2    1
    13    24    13    1
    14    13    26    1
    15    13     3    1
    16     9     8   ar
    17     9    10   ar
    18    34    16    1
    19     8     7   ar
    20    16    35    1
    21    16     1    1
    22     2     5    1
    23     2    17    1
    24    10     3    1
    25    10    11   ar
    26     5     6    1
    27     7     6    1
    28     7    12   ar
    29     6     4    1
    30    37    17    1
    31     4     1    1
    32     1    14    1
    33     1    15    1
    34    17    38    1
    35    17    36    1
    36    27    14    1
    37    11    12   ar
    38    11    22    1
    39    12    23    1
    40    29    14    1
    41    14    28    1
    42    30    15    1
    43    15    31    1
    44    15    32    1
