@<TRIPOS>MOLECULE
5,8
 36 35 0 0 0
SMALL
GASTEIGER

@<TRIPOS>ATOM
      1 SI         -0.3317   -2.9234    1.6106 Si      1  UNL1        0.0000
      2 O           1.1357   -3.1066    2.3066 O.3     1  UNL1        0.0000
      3 O          -1.1001   -4.3463    1.4021 O.3     1  UNL1        0.0000
      4 O           0.0177   -2.0619    0.2737 O.3     1  UNL1        0.0000
      5 N           2.5133    1.4837    6.3148 N.3     1  UNL1        0.0000
      6 H           3.3940    1.4992    6.8372 H       1  UNL1        0.0000
      7 H           2.1635    2.4473    6.2736 H       1  UNL1        0.0000
      8 N           1.0076   -0.1126    4.6276 N.3     1  UNL1        0.0000
      9 H           1.3821   -1.0461    4.8437 H       1  UNL1        0.0000
     10 C           1.5110    0.5988    6.8972 C.3     1  UNL1        0.0000
     11 H           1.0970    0.9965    7.8324 H       1  UNL1        0.0000
     12 H           1.9840   -0.3695    7.0964 H       1  UNL1        0.0000
     13 C           0.4073    0.4283    5.8539 C.3     1  UNL1        0.0000
     14 H          -0.3844   -0.2269    6.2359 H       1  UNL1        0.0000
     15 H          -0.0174    1.4078    5.6067 H       1  UNL1        0.0000
     16 C           0.0478   -0.2486    3.5360 C.3     1  UNL1        0.0000
     17 H           0.5993   -0.6062    2.6664 H       1  UNL1        0.0000
     18 H          -0.3532    0.7431    3.3105 H       1  UNL1        0.0000
     19 C          -1.0802   -1.2460    3.8258 C.3     1  UNL1        0.0000
     20 H          -1.8991   -0.7514    4.3524 H       1  UNL1        0.0000
     21 H          -0.6977   -2.0396    4.4723 H       1  UNL1        0.0000
     22 C          -1.6085   -1.8690    2.5353 C.3     1  UNL1        0.0000
     23 H          -1.9614   -1.0718    1.8838 H       1  UNL1        0.0000
     24 H          -2.4741   -2.4850    2.7722 H       1  UNL1        0.0000
     25 C           1.5821   -3.7492    3.4801 C.3     1  UNL1        0.0000
     26 H           0.7554   -3.9661    4.1564 H       1  UNL1        0.0000
     27 H           2.3109   -3.0975    3.9700 H       1  UNL1        0.0000
     28 H           2.0706   -4.6878    3.2114 H       1  UNL1        0.0000
     29 C          -0.6291   -5.5550    0.8598 C.3     1  UNL1        0.0000
     30 H          -0.7559   -5.5530   -0.2252 H       1  UNL1        0.0000
     31 H          -1.2194   -6.3655    1.2890 H       1  UNL1        0.0000
     32 H           0.4262   -5.7115    1.0913 H       1  UNL1        0.0000
     33 C           0.7733   -2.4317   -0.8537 C.3     1  UNL1        0.0000
     34 H           1.7460   -2.8298   -0.5602 H       1  UNL1        0.0000
     35 H           0.9109   -1.5397   -1.4656 H       1  UNL1        0.0000
     36 H           0.2411   -3.1877   -1.4343 H       1  UNL1        0.0000
@<TRIPOS>BOND
     1    35    33    1
     2    36    33    1
     3    33    34    1
     4    33     4    1
     5    30    29    1
     6     4     1    1
     7    29    32    1
     8    29    31    1
     9    29     3    1
    10     3     1    1
    11     1     2    1
    12     1    22    1
    13    23    22    1
    14     2    25    1
    15    22    24    1
    16    22    19    1
    17    17    16    1
    18    28    25    1
    19    18    16    1
    20    25    27    1
    21    25    26    1
    22    16    19    1
    23    16     8    1
    24    19    20    1
    25    19    21    1
    26     8     9    1
    27     8    13    1
    28    15    13    1
    29    13    14    1
    30    13    10    1
    31     7     5    1
    32     5     6    1
    33     5    10    1
    34    10    12    1
    35    10    11    1
