@<TRIPOS>MOLECULE
5,8
 36 35 0 0 0
SMALL
GASTEIGER

@<TRIPOS>ATOM
      1 SI          0.3820    7.2510    4.8990 Si      1  UNL1        0.0000
      2 O          -1.0893    6.5646    4.8452 O.3     1  UNL1        0.0000
      3 O           0.2232    8.6857    5.6369 O.3     1  UNL1        0.0000
      4 O           0.8590    7.2979    3.3363 O.3     1  UNL1        0.0000
      5 N           3.4249    1.5216    8.2495 N.3     1  UNL1        0.0000
      6 H           4.0009    0.7539    7.9003 H       1  UNL1        0.0000
      7 H           3.0013    1.2482    9.1448 H       1  UNL1        0.0000
      8 N           2.7113    4.1916    7.8407 N.3     1  UNL1        0.0000
      9 H           3.0926    4.3625    6.9006 H       1  UNL1        0.0000
     10 C           2.3662    1.8369    7.2890 C.3     1  UNL1        0.0000
     11 H           1.6209    1.0326    7.2283 H       1  UNL1        0.0000
     12 H           2.8291    1.9722    6.3055 H       1  UNL1        0.0000
     13 C           1.6971    3.1379    7.7250 C.3     1  UNL1        0.0000
     14 H           0.9199    3.4075    7.0004 H       1  UNL1        0.0000
     15 H           1.2392    3.0065    8.7116 H       1  UNL1        0.0000
     16 C           2.1538    5.4483    8.3410 C.3     1  UNL1        0.0000
     17 H           2.9789    6.1565    8.4567 H       1  UNL1        0.0000
     18 H           1.7209    5.2552    9.3271 H       1  UNL1        0.0000
     19 C           1.1052    6.0876    7.4219 C.3     1  UNL1        0.0000
     20 H           0.2056    5.4736    7.3763 H       1  UNL1        0.0000
     21 H           0.8163    7.0413    7.8624 H       1  UNL1        0.0000
     22 C           1.6314    6.3399    6.0091 C.3     1  UNL1        0.0000
     23 H           1.8882    5.3924    5.5298 H       1  UNL1        0.0000
     24 H           2.5570    6.9127    6.0783 H       1  UNL1        0.0000
     25 C          -1.4937    5.4216    4.1384 C.3     1  UNL1        0.0000
     26 H          -1.1067    5.4398    3.1195 H       1  UNL1        0.0000
     27 H          -2.5838    5.4149    4.1183 H       1  UNL1        0.0000
     28 H          -1.1360    4.5185    4.6389 H       1  UNL1        0.0000
     29 C          -0.7493    9.6790    5.4286 C.3     1  UNL1        0.0000
     30 H          -0.6270   10.1371    4.4448 H       1  UNL1        0.0000
     31 H          -0.6166   10.4350    6.2029 H       1  UNL1        0.0000
     32 H          -1.7498    9.2514    5.4970 H       1  UNL1        0.0000
     33 C           2.0636    7.7758    2.7975 C.3     1  UNL1        0.0000
     34 H           2.2834    8.7809    3.1623 H       1  UNL1        0.0000
     35 H           1.9533    7.7976    1.7129 H       1  UNL1        0.0000
     36 H           2.8906    7.1149    3.0646 H       1  UNL1        0.0000
@<TRIPOS>BOND
     1    35    33    1
     2    33    36    1
     3    33    34    1
     4    33     4    1
     5    26    25    1
     6     4     1    1
     7    27    25    1
     8    25    28    1
     9    25     2    1
    10    30    29    1
    11     2     1    1
    12     1     3    1
    13     1    22    1
    14    29    32    1
    15    29     3    1
    16    29    31    1
    17    23    22    1
    18    22    24    1
    19    22    19    1
    20    12    10    1
    21     9     8    1
    22    14    13    1
    23    11    10    1
    24    10    13    1
    25    10     5    1
    26    20    19    1
    27    19    21    1
    28    19    16    1
    29    13     8    1
    30    13    15    1
    31     8    16    1
    32     6     5    1
    33     5     7    1
    34    16    17    1
    35    16    18    1
