@<TRIPOS>MOLECULE
3,4
 40 40 0 0 0
SMALL
GASTEIGER

@<TRIPOS>ATOM
      1 SI         15.0513   14.6581   16.0199 Si      1  UNL1        0.0000
      2 SI         19.3908   14.3989   19.3791 Si      1  UNL1        0.0000
      3 N          16.2866   15.1540   17.1233 N.3     1  UNL1        0.0000
      4 N          17.9355   15.0039   18.6518 N.3     1  UNL1        0.0000
      5 C          17.2985   14.4746   17.6253 C.3     1  UNL1        0.0000
      6 C          17.7335   13.1947   17.0244 C.ar    1  UNL1        0.0000
      7 C          17.4704   11.9828   17.6487 C.ar    1  UNL1        0.0000
      8 C          17.9000   10.7989   17.0748 C.ar    1  UNL1        0.0000
      9 C          18.5998   10.8176   15.8802 C.ar    1  UNL1        0.0000
     10 C          18.8611   12.0248   15.2532 C.ar    1  UNL1        0.0000
     11 C          18.4248   13.2087   15.8189 C.ar    1  UNL1        0.0000
     12 C          15.3078   13.1143   14.9223 C.3     1  UNL1        0.0000
     13 C          13.4940   14.3490   17.0921 C.3     1  UNL1        0.0000
     14 C          14.7977   16.1762   14.8856 C.3     1  UNL1        0.0000
     15 C          19.0457   12.9785   20.6170 C.3     1  UNL1        0.0000
     16 C          20.7233   13.7760   18.1524 C.3     1  UNL1        0.0000
     17 C          20.1090   15.9149   20.2968 C.3     1  UNL1        0.0000
     18 H          16.9229   11.9700   18.5789 H       1  UNL1        0.0000
     19 H          17.6893    9.8580   17.5621 H       1  UNL1        0.0000
     20 H          18.9391    9.8929   15.4373 H       1  UNL1        0.0000
     21 H          19.4053   12.0410   14.3202 H       1  UNL1        0.0000
     22 H          18.6201   14.1546   15.3363 H       1  UNL1        0.0000
     23 H          16.1484   13.2331   14.2473 H       1  UNL1        0.0000
     24 H          14.4235   12.9381   14.3179 H       1  UNL1        0.0000
     25 H          15.4877   12.2213   15.5120 H       1  UNL1        0.0000
     26 H          13.5293   13.3779   17.5776 H       1  UNL1        0.0000
     27 H          12.5831   14.3881   16.5032 H       1  UNL1        0.0000
     28 H          13.4295   15.1066   17.8693 H       1  UNL1        0.0000
     29 H          15.6007   16.2783   14.1617 H       1  UNL1        0.0000
     30 H          14.7633   17.0870   15.4790 H       1  UNL1        0.0000
     31 H          13.8687   16.1017   14.3299 H       1  UNL1        0.0000
     32 H          18.0945   13.1081   21.1229 H       1  UNL1        0.0000
     33 H          19.8210   12.9370   21.3751 H       1  UNL1        0.0000
     34 H          19.0289   12.0160   20.1151 H       1  UNL1        0.0000
     35 H          20.8455   14.4552   17.3149 H       1  UNL1        0.0000
     36 H          20.4764   12.7987   17.7503 H       1  UNL1        0.0000
     37 H          21.6846   13.6909   18.6494 H       1  UNL1        0.0000
     38 H          19.7178   15.9942   21.3060 H       1  UNL1        0.0000
     39 H          19.8806   16.8409   19.7746 H       1  UNL1        0.0000
     40 H          21.1883   15.8407   20.3789 H       1  UNL1        0.0000
@<TRIPOS>BOND
     1    29    14    1
     2    23    12    1
     3    24    12    1
     4    21    10    1
     5    31    14    1
     6    14    30    1
     7    14     1    1
     8    12    25    1
     9    12     1    1
    10    10    11   ar
    11    10     9   ar
    12    22    11    1
    13    20     9    1
    14    11     6   ar
    15     9     8   ar
    16     1    13    1
    17     1     3    1
    18    27    13    1
    19     6     5    1
    20     6     7   ar
    21     8    19    1
    22     8     7   ar
    23    13    26    1
    24    13    28    1
    25     3     5    1
    26    35    16    1
    27     5     4    1
    28     7    18    1
    29    36    16    1
    30    16    37    1
    31    16     2    1
    32     4     2    1
    33     2    17    1
    34     2    15    1
    35    39    17    1
    36    34    15    1
    37    17    40    1
    38    17    38    1
    39    15    32    1
    40    15    33    1
