@<TRIPOS>MOLECULE
3,4
 40 40 0 0 0
SMALL
GASTEIGER

@<TRIPOS>ATOM
      1 SI         13.3710   18.8733   17.9033 Si      1  UNL1        0.0000
      2 SI         15.0298   15.1445   21.5800 Si      1  UNL1        0.0000
      3 N          14.3916   17.7135   18.6956 N.3     1  UNL1        0.0000
      4 N          15.1058   16.3459   20.3392 N.3     1  UNL1        0.0000
      5 C          14.1434   17.0921   19.8309 C.3     1  UNL1        0.0000
      6 C          12.8559   17.2628   20.5394 C.ar    1  UNL1        0.0000
      7 C          12.7990   18.0841   21.6590 C.ar    1  UNL1        0.0000
      8 C          11.6010   18.2740   22.3229 C.ar    1  UNL1        0.0000
      9 C          10.4535   17.6364   21.8812 C.ar    1  UNL1        0.0000
     10 C          10.5089   16.8078   20.7732 C.ar    1  UNL1        0.0000
     11 C          11.7045   16.6227   20.1011 C.ar    1  UNL1        0.0000
     12 C          14.5607   19.8297   16.7521 C.3     1  UNL1        0.0000
     13 C          11.9899   18.0380   16.8725 C.3     1  UNL1        0.0000
     14 C          12.5306   20.1455   19.0626 C.3     1  UNL1        0.0000
     15 C          16.6661   15.3443   22.5490 C.3     1  UNL1        0.0000
     16 C          14.9940   13.4586   20.6701 C.3     1  UNL1        0.0000
     17 C          13.5894   15.1521   22.8366 C.3     1  UNL1        0.0000
     18 H          13.6998   18.5738   21.9977 H       1  UNL1        0.0000
     19 H          11.5604   18.9191   23.1885 H       1  UNL1        0.0000
     20 H           9.5182   17.7829   22.4009 H       1  UNL1        0.0000
     21 H           9.6164   16.3045   20.4306 H       1  UNL1        0.0000
     22 H          11.7498   15.9739   19.2395 H       1  UNL1        0.0000
     23 H          15.5701   19.8479   17.1552 H       1  UNL1        0.0000
     24 H          14.2361   20.8573   16.6258 H       1  UNL1        0.0000
     25 H          14.6053   19.3863   15.7625 H       1  UNL1        0.0000
     26 H          11.1381   17.7768   17.4926 H       1  UNL1        0.0000
     27 H          12.3414   17.1327   16.3883 H       1  UNL1        0.0000
     28 H          11.6352   18.7110   16.0986 H       1  UNL1        0.0000
     29 H          11.6984   19.7095   19.6057 H       1  UNL1        0.0000
     30 H          12.1435   20.9814   18.4885 H       1  UNL1        0.0000
     31 H          13.2284   20.5439   19.7923 H       1  UNL1        0.0000
     32 H          17.5002   15.4747   21.8640 H       1  UNL1        0.0000
     33 H          16.8666   14.4694   23.1586 H       1  UNL1        0.0000
     34 H          16.6408   16.2019   23.2147 H       1  UNL1        0.0000
     35 H          13.9957   13.2164   20.3170 H       1  UNL1        0.0000
     36 H          15.3214   12.6457   21.3105 H       1  UNL1        0.0000
     37 H          15.6511   13.4960   19.8047 H       1  UNL1        0.0000
     38 H          12.6248   15.0447   22.3516 H       1  UNL1        0.0000
     39 H          13.5624   16.0699   23.4141 H       1  UNL1        0.0000
     40 H          13.7016   14.3283   23.5344 H       1  UNL1        0.0000
@<TRIPOS>BOND
     1    25    12    1
     2    28    13    1
     3    27    13    1
     4    24    12    1
     5    12    23    1
     6    12     1    1
     7    13    26    1
     8    13     1    1
     9     1     3    1
    10     1    14    1
    11    30    14    1
    12     3     5    1
    13    14    29    1
    14    14    31    1
    15    22    11    1
    16    37    16    1
    17     5     4    1
    18     5     6    1
    19    11     6   ar
    20    11    10   ar
    21    35    16    1
    22     4     2    1
    23    21    10    1
    24     6     7   ar
    25    16    36    1
    26    16     2    1
    27    10     9   ar
    28     2    15    1
    29     2    17    1
    30     7    18    1
    31     7     8   ar
    32    32    15    1
    33     9     8   ar
    34     9    20    1
    35     8    19    1
    36    38    17    1
    37    15    33    1
    38    15    34    1
    39    17    39    1
    40    17    40    1
