@<TRIPOS>MOLECULE
1,2
 63 65 0 0 0
SMALL
GASTEIGER

@<TRIPOS>ATOM
      1 N           4.9243    6.8163    8.3609 N.pl3   1  UNL1       -0.2143
      2 N           3.9500    5.1189    9.4449 N.pl3   1  UNL1       -0.2143
      3 C           3.8407    6.3576    8.9722 C.3     1  UNL1        0.2052
      4 C           2.5795    7.1318    9.0852 C.ar    1  UNL1        0.0011
      5 C           1.3637    6.5094    8.8169 C.ar    1  UNL1       -0.0545
      6 C           0.1781    7.2131    8.9021 C.ar    1  UNL1       -0.0585
      7 C           0.1672    8.5553    9.2580 C.ar    1  UNL1       -0.0504
      8 C           1.3826    9.1755    9.5219 C.ar    1  UNL1       -0.0585
      9 C           2.5723    8.4799    9.4347 C.ar    1  UNL1       -0.0545
     10 C          -1.1186    9.3143    9.3744 C.3     1  UNL1       -0.0397
     11 C           4.9676    8.0876    7.7618 C.ar    1  UNL1        0.0571
     12 C           4.1760    8.4237    6.6537 C.ar    1  UNL1       -0.0247
     13 C           4.2369    9.7141    6.1454 C.ar    1  UNL1       -0.0568
     14 C           5.0999   10.6554    6.6710 C.ar    1  UNL1       -0.0611
     15 C           5.9352   10.2977    7.7125 C.ar    1  UNL1       -0.0568
     16 C           5.8780    9.0298    8.2702 C.ar    1  UNL1       -0.0247
     17 C           6.7757    8.7086    9.4357 C.3     1  UNL1       -0.0287
     18 C           6.2014    9.2560   10.7445 C.3     1  UNL1       -0.0612
     19 C           3.3065    7.4168    5.9483 C.3     1  UNL1       -0.0287
     20 C           3.8085    7.1859    4.5209 C.3     1  UNL1       -0.0612
     21 C           3.0325    4.5722   10.3590 C.ar    1  UNL1        0.0571
     22 C           2.8649    5.1356   11.6335 C.ar    1  UNL1       -0.0247
     23 C           1.9565    4.5505   12.5027 C.ar    1  UNL1       -0.0568
     24 C           1.2541    3.4168   12.1403 C.ar    1  UNL1       -0.0611
     25 C           1.4751    2.8252   10.9092 C.ar    1  UNL1       -0.0568
     26 C           2.3651    3.3864   10.0098 C.ar    1  UNL1       -0.0247
     27 C           2.6767    2.7800    8.6665 C.3     1  UNL1       -0.0287
     28 C           1.9337    1.4937    8.3306 C.3     1  UNL1       -0.0612
     29 C           3.7106    6.3179   12.0334 C.3     1  UNL1       -0.0287
     30 C           3.8514    6.5250   13.5378 C.3     1  UNL1       -0.0612
     31 H           1.3458    5.4710    8.5261 H       1  UNL1        0.0622
     32 H          -0.7539    6.7101    8.6874 H       1  UNL1        0.0620
     33 H           1.3982   10.2203    9.7978 H       1  UNL1        0.0620
     34 H           3.4994    8.9892    9.6445 H       1  UNL1        0.0622
     35 H          -1.9076    8.8341    8.8009 H       1  UNL1        0.0278
     36 H          -0.9970   10.3371    9.0241 H       1  UNL1        0.0278
     37 H          -1.4334    9.3532   10.4177 H       1  UNL1        0.0278
     38 H           3.5929    9.9828    5.3201 H       1  UNL1        0.0621
     39 H           5.1319   11.6548    6.2634 H       1  UNL1        0.0618
     40 H           6.6379   11.0155    8.1120 H       1  UNL1        0.0621
     41 H           6.9180    7.6220    9.5206 H       1  UNL1        0.0311
     42 H           7.7537    9.1669    9.2654 H       1  UNL1        0.0311
     43 H           5.9574   10.3121   10.6388 H       1  UNL1        0.0233
     44 H           6.9241    9.1499   11.5493 H       1  UNL1        0.0233
     45 H           5.2985    8.7174   11.0226 H       1  UNL1        0.0233
     46 H           3.3115    6.4668    6.4858 H       1  UNL1        0.0311
     47 H           2.2756    7.7822    5.9202 H       1  UNL1        0.0311
     48 H           3.8837    8.1252    3.9787 H       1  UNL1        0.0233
     49 H           3.1315    6.5344    3.9741 H       1  UNL1        0.0233
     50 H           4.7915    6.7219    4.5405 H       1  UNL1        0.0233
     51 H           1.7950    4.9767   13.4800 H       1  UNL1        0.0621
     52 H           0.5454    2.9795   12.8281 H       1  UNL1        0.0618
     53 H           0.9426    1.9226   10.6553 H       1  UNL1        0.0621
     54 H           2.4725    3.5229    7.8875 H       1  UNL1        0.0311
     55 H           3.7599    2.5894    8.6345 H       1  UNL1        0.0311
     56 H           2.1469    0.7184    9.0625 H       1  UNL1        0.0233
     57 H           2.2555    1.1323    7.3563 H       1  UNL1        0.0233
     58 H           0.8585    1.6602    8.2991 H       1  UNL1        0.0233
     59 H           3.2886    7.2281   11.5947 H       1  UNL1        0.0311
     60 H           4.7093    6.1719   11.5966 H       1  UNL1        0.0311
     61 H           2.9148    6.8580   13.9792 H       1  UNL1        0.0233
     62 H           4.6025    7.2880   13.7340 H       1  UNL1        0.0233
     63 H           4.1603    5.6034   14.0252 H       1  UNL1        0.0233
@<TRIPOS>BOND
     1    49    20    1
     2    48    20    1
     3    20    50    1
     4    20    19    1
     5    38    13    1
     6    47    19    1
     7    19    46    1
     8    19    12    1
     9    13    12   ar
    10    13    14   ar
    11    39    14    1
    12    12    11   ar
    13    14    15   ar
    14    57    28    1
    15    15    40    1
    16    15    16   ar
    17    11    16   ar
    18    11     1    1
    19    54    27    1
    20    16    17    1
    21    58    28    1
    22    28    27    1
    23    28    56    1
    24     1     3    1
    25    31     5    1
    26    55    27    1
    27    27    26    1
    28    32     6    1
    29    35    10    1
    30     5     6   ar
    31     5     4   ar
    32     6     7   ar
    33     3     4    1
    34     3     2    1
    35    36    10    1
    36     4     9   ar
    37     7    10    1
    38     7     8   ar
    39    42    17    1
    40    10    37    1
    41     9     8   ar
    42     9    34    1
    43    17    41    1
    44    17    18    1
    45     2    21    1
    46     8    33    1
    47    26    21   ar
    48    26    25   ar
    49    21    22   ar
    50    43    18    1
    51    53    25    1
    52    18    45    1
    53    18    44    1
    54    25    24   ar
    55    59    29    1
    56    60    29    1
    57    22    29    1
    58    22    23   ar
    59    29    30    1
    60    24    23   ar
    61    24    52    1
    62    23    51    1
    63    30    62    1
    64    30    61    1
    65    30    63    1
