@<TRIPOS>MOLECULE
1,2
 63 65 0 0 0
SMALL
GASTEIGER

@<TRIPOS>ATOM
      1 N           7.4666    4.7360    6.9192 N.pl3   1  UNL1       -0.2143
      2 N           5.9180    3.1123    7.0565 N.pl3   1  UNL1       -0.2143
      3 C           6.9149    3.6570    6.3729 C.3     1  UNL1        0.2052
      4 C           7.3546    3.1503    5.0490 C.ar    1  UNL1        0.0011
      5 C           7.4568    4.0461    3.9882 C.ar    1  UNL1       -0.0545
      6 C           7.8464    3.6128    2.7374 C.ar    1  UNL1       -0.0585
      7 C           8.1489    2.2752    2.5072 C.ar    1  UNL1       -0.0504
      8 C           8.0443    1.3848    3.5666 C.ar    1  UNL1       -0.0585
      9 C           7.6496    1.8107    4.8215 C.ar    1  UNL1       -0.0545
     10 C           8.5786    1.8215    1.1460 C.3     1  UNL1       -0.0397
     11 C           8.7345    5.1948    6.5057 C.ar    1  UNL1        0.0571
     12 C           9.8653    4.3852    6.7200 C.ar    1  UNL1       -0.0247
     13 C          11.1057    4.8525    6.3174 C.ar    1  UNL1       -0.0568
     14 C          11.2461    6.1085    5.7545 C.ar    1  UNL1       -0.0611
     15 C          10.1431    6.9271    5.6166 C.ar    1  UNL1       -0.0568
     16 C           8.8796    6.4860    5.9820 C.ar    1  UNL1       -0.0247
     17 C           7.6918    7.4052    5.8687 C.3     1  UNL1       -0.0287
     18 C           7.5423    8.0722    4.5022 C.3     1  UNL1       -0.0612
     19 C           9.6983    3.0694    7.4383 C.3     1  UNL1       -0.0287
     20 C          10.9900    2.4563    7.9668 C.3     1  UNL1       -0.0612
     21 C           5.2301    1.9971    6.5245 C.ar    1  UNL1        0.0571
     22 C           4.3291    2.1503    5.4613 C.ar    1  UNL1       -0.0247
     23 C           3.7512    1.0207    4.8999 C.ar    1  UNL1       -0.0568
     24 C           4.0235   -0.2402    5.3960 C.ar    1  UNL1       -0.0611
     25 C           4.8436   -0.3767    6.4996 C.ar    1  UNL1       -0.0568
     26 C           5.4446    0.7288    7.0830 C.ar    1  UNL1       -0.0247
     27 C           6.3116    0.5464    8.3019 C.3     1  UNL1       -0.0287
     28 C           5.5169   -0.0490    9.4648 C.3     1  UNL1       -0.0612
     29 C           3.9555    3.5268    4.9772 C.3     1  UNL1       -0.0287
     30 C           2.4548    3.6548    4.7119 C.3     1  UNL1       -0.0612
     31 H           7.2162    5.0846    4.1506 H       1  UNL1        0.0622
     32 H           7.9188    4.3212    1.9244 H       1  UNL1        0.0620
     33 H           8.2729    0.3402    3.4110 H       1  UNL1        0.0620
     34 H           7.5776    1.0956    5.6263 H       1  UNL1        0.0622
     35 H           7.8330    2.0954    0.4008 H       1  UNL1        0.0278
     36 H           8.7188    0.7440    1.1197 H       1  UNL1        0.0278
     37 H           9.5167    2.3010    0.8683 H       1  UNL1        0.0278
     38 H          11.9831    4.2407    6.4526 H       1  UNL1        0.0621
     39 H          12.2216    6.4564    5.4478 H       1  UNL1        0.0618
     40 H          10.2649    7.9247    5.2218 H       1  UNL1        0.0621
     41 H           6.7815    6.8439    6.1020 H       1  UNL1        0.0311
     42 H           7.7902    8.1897    6.6252 H       1  UNL1        0.0311
     43 H           8.3895    8.7171    4.2845 H       1  UNL1        0.0233
     44 H           6.6417    8.6822    4.4915 H       1  UNL1        0.0233
     45 H           7.4719    7.3304    3.7089 H       1  UNL1        0.0233
     46 H           9.2231    2.3479    6.7683 H       1  UNL1        0.0311
     47 H           9.0116    3.2377    8.2813 H       1  UNL1        0.0311
     48 H          11.6321    2.1274    7.1524 H       1  UNL1        0.0233
     49 H          10.7565    1.5880    8.5802 H       1  UNL1        0.0233
     50 H          11.5340    3.1723    8.5778 H       1  UNL1        0.0233
     51 H           3.0843    1.1249    4.0581 H       1  UNL1        0.0621
     52 H           3.5832   -1.1116    4.9342 H       1  UNL1        0.0618
     53 H           5.0381   -1.3596    6.9035 H       1  UNL1        0.0621
     54 H           7.1442   -0.1226    8.0610 H       1  UNL1        0.0311
     55 H           6.7256    1.5134    8.6105 H       1  UNL1        0.0311
     56 H           4.7120    0.6219    9.7536 H       1  UNL1        0.0233
     57 H           6.1639   -0.1922   10.3255 H       1  UNL1        0.0233
     58 H           5.0857   -1.0092    9.1914 H       1  UNL1        0.0233
     59 H           4.5117    3.7663    4.0653 H       1  UNL1        0.0311
     60 H           4.2523    4.2537    5.7430 H       1  UNL1        0.0311
     61 H           2.1688    3.1423    3.7970 H       1  UNL1        0.0233
     62 H           2.1741    4.6999    4.6117 H       1  UNL1        0.0233
     63 H           1.8872    3.2270    5.5353 H       1  UNL1        0.0233
@<TRIPOS>BOND
     1    35    10    1
     2    37    10    1
     3    36    10    1
     4    10     7    1
     5    32     6    1
     6     7     6   ar
     7     7     8   ar
     8     6     5   ar
     9    33     8    1
    10     8     9   ar
    11    45    18    1
    12    61    30    1
    13     5    31    1
    14     5     4   ar
    15    51    23    1
    16    59    29    1
    17    43    18    1
    18    44    18    1
    19    18    17    1
    20    62    30    1
    21    30    29    1
    22    30    63    1
    23     9     4   ar
    24     9    34    1
    25    23    24   ar
    26    23    22   ar
    27    52    24    1
    28    29    22    1
    29    29    60    1
    30     4     3    1
    31    40    15    1
    32    24    25   ar
    33    39    14    1
    34    22    21   ar
    35    15    14   ar
    36    15    16   ar
    37    14    13   ar
    38    17    16    1
    39    17    41    1
    40    17    42    1
    41    16    11   ar
    42    13    38    1
    43    13    12   ar
    44     3     1    1
    45     3     2    1
    46    25    53    1
    47    25    26   ar
    48    11    12   ar
    49    11     1    1
    50    21     2    1
    51    21    26   ar
    52    12    19    1
    53    46    19    1
    54    26    27    1
    55    48    20    1
    56    19    20    1
    57    19    47    1
    58    20    50    1
    59    20    49    1
    60    54    27    1
    61    27    55    1
    62    27    28    1
    63    58    28    1
    64    28    56    1
    65    28    57    1
