@<TRIPOS>MOLECULE
2,3
 27 27 0 0 0
SMALL
GASTEIGER

@<TRIPOS>ATOM
      1 SI         -1.7937   10.5372   14.9011 Si      1  UNL1        0.0000
      2 N          -0.9041    9.4270   13.8999 N.3     1  UNL1        0.0000
      3 N           0.9458    8.6833   12.8598 N.pl3   1  UNL1        0.0000
      4 C           0.4018    9.1659   14.0168 C.3     1  UNL1        0.0000
      5 C           1.2028    9.3160   15.1690 C.2     1  UNL1        0.0000
      6 H           0.7496    9.6806   16.0745 H       1  UNL1        0.0000
      7 C           2.5332    8.9935   15.0999 C.2     1  UNL1        0.0000
      8 H           3.1656    9.1076   15.9683 H       1  UNL1        0.0000
      9 C           3.0739    8.5121   13.9061 C.2     1  UNL1        0.0000
     10 H           4.1181    8.2541   13.8395 H       1  UNL1        0.0000
     11 C           2.7557    7.8110   11.5095 C.3     1  UNL1        0.0000
     12 H           2.2283    8.2693   10.6715 H       1  UNL1        0.0000
     13 H           2.5932    6.7318   11.4791 H       1  UNL1        0.0000
     14 H           3.8223    7.9927   11.4101 H       1  UNL1        0.0000
     15 C           2.2493    8.3675   12.8063 C.2     1  UNL1        0.0000
     16 C          -0.7938   12.0666   15.4667 C.3     1  UNL1        0.0000
     17 H          -0.1892   11.8721   16.3474 H       1  UNL1        0.0000
     18 H          -1.4584   12.8910   15.7055 H       1  UNL1        0.0000
     19 H          -0.1321   12.3987   14.6710 H       1  UNL1        0.0000
     20 C          -3.2361   11.0946   13.7843 C.3     1  UNL1        0.0000
     21 H          -3.8382   10.2620   13.4236 H       1  UNL1        0.0000
     22 H          -2.8606   11.6407   12.9173 H       1  UNL1        0.0000
     23 H          -3.8996   11.7621   14.3250 H       1  UNL1        0.0000
     24 C          -2.4775    9.6025   16.4283 C.3     1  UNL1        0.0000
     25 H          -1.6847    9.1716   17.0311 H       1  UNL1        0.0000
     26 H          -3.1469    8.7970   16.1436 H       1  UNL1        0.0000
     27 H          -3.0359   10.2835   17.0598 H       1  UNL1        0.0000
@<TRIPOS>BOND
     1    12    11    1
     2    14    11    1
     3    13    11    1
     4    11    15    1
     5    15     3    1
     6    15     9    2
     7     3     4    1
     8    22    20    1
     9    21    20    1
    10    20    23    1
    11    20     1    1
    12    10     9    1
    13     2     4    1
    14     2     1    1
    15     9     7    1
    16     4     5    1
    17    19    16    1
    18     1    16    1
    19     1    24    1
    20     7     5    2
    21     7     8    1
    22     5     6    1
    23    16    18    1
    24    16    17    1
    25    26    24    1
    26    24    25    1
    27    24    27    1
