@<TRIPOS>MOLECULE
2,3
 17 16 0 0 0
SMALL
GASTEIGER

@<TRIPOS>ATOM
      1 SI          5.2697    4.7297    0.7574 Si      1  UNL1        0.0000
      2 N           4.3940    1.6050    1.5084 N.3     1  UNL1        0.0000
      3 N           3.8111    2.6244    1.8728 N.3     1  UNL1        0.0000
      4 C           3.8863    3.9058    1.7125 C.3     1  UNL1        0.0000
      5 C           5.3841    4.1302   -1.0551 C.3     1  UNL1        0.0000
      6 C           4.9316    6.6074    0.7839 C.3     1  UNL1        0.0000
      7 C           6.9730    4.3837    1.5638 C.3     1  UNL1        0.0000
      8 H           3.1334    4.4833    2.2405 H       1  UNL1        0.0000
      9 H           5.5665    3.0608   -1.0921 H       1  UNL1        0.0000
     10 H           4.4721    4.3297   -1.6097 H       1  UNL1        0.0000
     11 H           6.2001    4.6205   -1.5785 H       1  UNL1        0.0000
     12 H           4.8947    6.9925    1.7976 H       1  UNL1        0.0000
     13 H           3.9892    6.8509    0.3047 H       1  UNL1        0.0000
     14 H           5.7138    7.1444    0.2585 H       1  UNL1        0.0000
     15 H           7.0477    4.8153    2.5582 H       1  UNL1        0.0000
     16 H           7.1414    3.3140    1.6512 H       1  UNL1        0.0000
     17 H           7.7841    4.7934    0.9687 H       1  UNL1        0.0000
@<TRIPOS>BOND
     1    10     5    1
     2    11     5    1
     3     9     5    1
     4     5     1    1
     5    14     6    1
     6    13     6    1
     7     1     6    1
     8     1     7    1
     9     1     4    1
    10     6    12    1
    11    17     7    1
    12     2     3    1
    13     7    16    1
    14     7    15    1
    15     4     3    1
    16     4     8    1
