@<TRIPOS>MOLECULE
3,4
 38 38 0 0 0
SMALL
GASTEIGER

@<TRIPOS>ATOM
      1 SI         -0.6390    2.1452    4.8993 Si      1  UNL1        0.0000
      2 SI          3.3614    6.0796    3.6085 Si      1  UNL1        0.0000
      3 N           0.5206    2.8525    3.8115 N.pl3   1  UNL1        0.0000
      4 N           2.2100    4.8053    3.3634 N.pl3   1  UNL1        0.0000
      5 C           0.1773    3.7227    2.7811 C.ar    1  UNL1        0.0000
      6 C          -0.9968    3.6692    2.0335 C.ar    1  UNL1        0.0000
      7 H          -1.7226    2.9015    2.2558 H       1  UNL1        0.0000
      8 C          -1.2326    4.5863    1.0226 C.ar    1  UNL1        0.0000
      9 H          -2.1449    4.5241    0.4493 H       1  UNL1        0.0000
     10 C          -0.3080    5.5832    0.7512 C.ar    1  UNL1        0.0000
     11 H          -0.5006    6.2963   -0.0359 H       1  UNL1        0.0000
     12 C           0.8566    5.6855    1.4903 C.ar    1  UNL1        0.0000
     13 H           1.5583    6.4827    1.3011 H       1  UNL1        0.0000
     14 C           1.1346    4.7725    2.5125 C.ar    1  UNL1        0.0000
     15 C           0.4774    1.4009    6.2527 C.3     1  UNL1        0.0000
     16 H           1.4862    1.2749    5.8590 H       1  UNL1        0.0000
     17 H           0.1207    0.4345    6.5898 H       1  UNL1        0.0000
     18 H           0.5385    2.0442    7.1240 H       1  UNL1        0.0000
     19 C          -1.7045    0.7649    4.0954 C.3     1  UNL1        0.0000
     20 H          -2.5943    1.1597    3.6131 H       1  UNL1        0.0000
     21 H          -2.0383    0.0608    4.8506 H       1  UNL1        0.0000
     22 H          -1.1455    0.2043    3.3514 H       1  UNL1        0.0000
     23 C          -1.7898    3.5172    5.5711 C.3     1  UNL1        0.0000
     24 H          -2.3510    3.9929    4.7717 H       1  UNL1        0.0000
     25 H          -1.2220    4.2935    6.0763 H       1  UNL1        0.0000
     26 H          -2.5039    3.1138    6.2812 H       1  UNL1        0.0000
     27 C           4.6921    5.1713    4.6398 C.3     1  UNL1        0.0000
     28 H           4.7005    4.1033    4.3932 H       1  UNL1        0.0000
     29 H           4.5130    5.2660    5.7062 H       1  UNL1        0.0000
     30 H           5.6838    5.5646    4.4440 H       1  UNL1        0.0000
     31 C           4.1662    6.8602    2.0536 C.3     1  UNL1        0.0000
     32 H           3.5522    7.6477    1.6249 H       1  UNL1        0.0000
     33 H           4.3582    6.1201    1.2817 H       1  UNL1        0.0000
     34 H           5.1188    7.3082    2.3195 H       1  UNL1        0.0000
     35 C           2.5242    7.4735    4.6132 C.3     1  UNL1        0.0000
     36 H           1.7147    7.9356    4.0566 H       1  UNL1        0.0000
     37 H           3.2448    8.2474    4.8513 H       1  UNL1        0.0000
     38 H           2.1119    7.1048    5.5471 H       1  UNL1        0.0000
@<TRIPOS>BOND
     1    11    10    1
     2     9     8    1
     3    10     8   ar
     4    10    12   ar
     5     8     6   ar
     6    33    31    1
     7    13    12    1
     8    12    14   ar
     9    32    31    1
    10     6     7    1
    11     6     5   ar
    12    31    34    1
    13    31     2    1
    14    14     5   ar
    15    14     4    1
    16     5     3    1
    17    22    19    1
    18     4     2    1
    19     2    35    1
    20     2    27    1
    21    20    19    1
    22     3     1    1
    23    36    35    1
    24    19    21    1
    25    19     1    1
    26    28    27    1
    27    30    27    1
    28    35    37    1
    29    35    38    1
    30    27    29    1
    31    24    23    1
    32     1    23    1
    33     1    15    1
    34    23    25    1
    35    23    26    1
    36    16    15    1
    37    15    17    1
    38    15    18    1
