@<TRIPOS>MOLECULE
1,2
 23 22 0 0 0
SMALL
GASTEIGER

@<TRIPOS>ATOM
      1 N          -0.3269    4.0453   18.7699 N.3     1  UNL1        0.0000
      2 N          -0.7225    2.9331   17.9824 N.3     1  UNL1        0.0000
      3 C          -1.4360    4.6654   19.4773 C.3     1  UNL1        0.0000
      4 H          -2.0712    5.2544   18.8025 H       1  UNL1        0.0000
      5 H          -1.0434    5.3183   20.2578 H       1  UNL1        0.0000
      6 H          -2.0345    3.8817   19.9314 H       1  UNL1        0.0000
      7 C           0.4053    5.0471   18.0050 C.3     1  UNL1        0.0000
      8 H          -0.2374    5.5506   17.2725 H       1  UNL1        0.0000
      9 H           1.2248    4.5597   17.4831 H       1  UNL1        0.0000
     10 H           0.8084    5.7934   18.6914 H       1  UNL1        0.0000
     11 C          -3.7578    3.2614   17.3813 C.3     1  UNL1        0.0000
     12 H          -4.0043    2.6589   18.2496 H       1  UNL1        0.0000
     13 H          -4.4610    3.0019   16.5952 H       1  UNL1        0.0000
     14 H          -3.9390    4.3005   17.6404 H       1  UNL1        0.0000
     15 C          -1.7128    4.2073   15.3418 C.3     1  UNL1        0.0000
     16 H          -0.6894    4.2353   14.9796 H       1  UNL1        0.0000
     17 H          -1.9887    5.2179   15.6300 H       1  UNL1        0.0000
     18 H          -2.3466    3.9321   14.5044 H       1  UNL1        0.0000
     19 C          -1.8915    1.1905   16.0404 C.3     1  UNL1        0.0000
     20 H          -1.6154    0.4646   16.7991 H       1  UNL1        0.0000
     21 H          -1.1664    1.1204   15.2370 H       1  UNL1        0.0000
     22 H          -2.8556    0.9052   15.6332 H       1  UNL1        0.0000
     23 SI         -1.9540    2.9495   16.7815 Si      1  UNL1        0.0000
@<TRIPOS>BOND
     1    18    15    1
     2    16    15    1
     3    21    19    1
     4    15    17    1
     5    15    23    1
     6    22    19    1
     7    19    23    1
     8    19    20    1
     9    13    11    1
    10    23    11    1
    11    23     2    1
    12     8     7    1
    13    11    14    1
    14    11    12    1
    15     9     7    1
    16     2     1    1
    17     7    10    1
    18     7     1    1
    19     1     3    1
    20     4     3    1
    21     3     6    1
    22     3     5    1
