@<TRIPOS>MOLECULE
2,3
 47 46 0 0 0
SMALL
GASTEIGER

@<TRIPOS>ATOM
      1 SI          6.3688   14.8094    8.1901 Si      1  UNL1        0.0000
      2 N           3.5961   15.6179    6.2967 N.3     1  UNL1        0.0000
      3 N           4.4104   13.7318    5.4861 N.3     1  UNL1        0.0000
      4 N           4.7976   14.1717    7.8093 N.3     1  UNL1        0.0000
      5 C           3.2741   16.5451    7.3611 C.3     1  UNL1        0.0000
      6 C           3.8424   17.9398    7.0831 C.3     1  UNL1        0.0000
      7 C           1.7525   16.6304    7.5298 C.3     1  UNL1        0.0000
      8 C           5.1073   12.4712    5.5288 C.3     1  UNL1        0.0000
      9 C           4.1077   11.3061    5.5185 C.3     1  UNL1        0.0000
     10 C           6.0376   12.3525    4.3206 C.3     1  UNL1        0.0000
     11 C           3.9678   13.3096    8.6450 C.3     1  UNL1        0.0000
     12 C           3.4300   14.0230    9.8896 C.3     1  UNL1        0.0000
     13 C           4.6856   12.0372    9.1008 C.3     1  UNL1        0.0000
     14 C           4.2573   14.5094    6.5316 C.3     1  UNL1        0.0000
     15 C           7.0684   15.5505    6.5823 C.3     1  UNL1        0.0000
     16 C           6.3596   16.1685    9.5425 C.3     1  UNL1        0.0000
     17 C           7.6303   13.4990    8.7877 C.3     1  UNL1        0.0000
     18 H           3.7201   16.1912    8.2985 H       1  UNL1        0.0000
     19 H           4.9077   17.8788    6.8780 H       1  UNL1        0.0000
     20 H           3.6874   18.5799    7.9499 H       1  UNL1        0.0000
     21 H           3.3414   18.3903    6.2306 H       1  UNL1        0.0000
     22 H           1.3469   15.6689    7.8365 H       1  UNL1        0.0000
     23 H           1.2962   16.9073    6.5824 H       1  UNL1        0.0000
     24 H           1.4969   17.3748    8.2816 H       1  UNL1        0.0000
     25 H           5.7201   12.4180    6.4404 H       1  UNL1        0.0000
     26 H           3.4689   11.3353    6.3972 H       1  UNL1        0.0000
     27 H           4.6346   10.3541    5.5016 H       1  UNL1        0.0000
     28 H           3.4788   11.3788    4.6337 H       1  UNL1        0.0000
     29 H           6.7760   13.1488    4.3357 H       1  UNL1        0.0000
     30 H           5.4558   12.4279    3.4046 H       1  UNL1        0.0000
     31 H           6.5538   11.3945    4.3362 H       1  UNL1        0.0000
     32 H           3.1098   13.0148    8.0279 H       1  UNL1        0.0000
     33 H           2.8035   14.8691    9.6261 H       1  UNL1        0.0000
     34 H           4.2558   14.3737   10.5018 H       1  UNL1        0.0000
     35 H           2.8330   13.3267   10.4749 H       1  UNL1        0.0000
     36 H           3.9638   11.3577    9.5495 H       1  UNL1        0.0000
     37 H           5.4408   12.2776    9.8416 H       1  UNL1        0.0000
     38 H           5.1614   11.5293    8.2686 H       1  UNL1        0.0000
     39 H           7.7030   14.8381    6.0643 H       1  UNL1        0.0000
     40 H           7.6666   16.4347    6.7819 H       1  UNL1        0.0000
     41 H           6.2657   15.8265    5.9089 H       1  UNL1        0.0000
     42 H           6.0553   15.7845   10.5119 H       1  UNL1        0.0000
     43 H           5.7059   17.0001    9.2989 H       1  UNL1        0.0000
     44 H           7.3624   16.5680    9.6626 H       1  UNL1        0.0000
     45 H           7.4911   13.2408    9.8322 H       1  UNL1        0.0000
     46 H           8.6328   13.9058    8.6955 H       1  UNL1        0.0000
     47 H           7.5999   12.5800    8.2112 H       1  UNL1        0.0000
@<TRIPOS>BOND
     1    30    10    1
     2    10    29    1
     3    10    31    1
     4    10     8    1
     5    28     9    1
     6     3     8    1
     7     3    14    1
     8    27     9    1
     9     9     8    1
    10     9    26    1
    11     8    25    1
    12    41    15    1
    13    39    15    1
    14    21     6    1
    15     2    14    1
    16     2     5    1
    17    14     4    1
    18    15    40    1
    19    15     1    1
    20    23     7    1
    21    19     6    1
    22     6     5    1
    23     6    20    1
    24     5     7    1
    25     5    18    1
    26     7    22    1
    27     7    24    1
    28     4     1    1
    29     4    11    1
    30    32    11    1
    31     1    17    1
    32     1    16    1
    33    47    17    1
    34    38    13    1
    35    11    13    1
    36    11    12    1
    37    46    17    1
    38    17    45    1
    39    13    36    1
    40    13    37    1
    41    43    16    1
    42    16    44    1
    43    16    42    1
    44    33    12    1
    45    12    35    1
    46    12    34    1
