@<TRIPOS>MOLECULE
1,2
 54 56 0 0 0
SMALL
GASTEIGER

@<TRIPOS>ATOM
      1 N           7.3064   12.3048   -5.0605 N.pl3   1  UNL1       -0.2169
      2 N           7.4223    9.5803   -5.0021 N.pl3   1  UNL1       -0.2169
      3 C           8.8331    9.5668   -7.1117 C.3     1  UNL1        0.0101
      4 H           9.0475    8.5510   -6.7750 H       1  UNL1        0.0372
      5 H           8.3130    9.4898   -8.0751 H       1  UNL1        0.0372
      6 C          10.1152   10.3426   -7.3308 C.2     1  UNL1       -0.0677
      7 C          10.0603   11.6712   -7.3592 C.2     1  UNL1       -0.0677
      8 C           8.7183   12.3478   -7.1719 C.3     1  UNL1        0.0101
      9 H           8.1900   12.3330   -8.1328 H       1  UNL1        0.0372
     10 H           8.8483   13.3924   -6.8839 H       1  UNL1        0.0372
     11 C           7.9195   11.6222   -6.1194 C.2     1  UNL1        0.0543
     12 C           7.9731   10.2706   -6.0926 C.2     1  UNL1        0.0543
     13 C          11.3372    9.4921   -7.4953 C.3     1  UNL1       -0.0432
     14 H          11.5628    8.9829   -6.5578 H       1  UNL1        0.0275
     15 H          12.2091   10.0678   -7.7891 H       1  UNL1        0.0275
     16 H          11.1571    8.7286   -8.2518 H       1  UNL1        0.0275
     17 C          11.2095   12.6108   -7.5594 C.3     1  UNL1       -0.0432
     18 H          11.3899   13.1750   -6.6438 H       1  UNL1        0.0275
     19 H          10.9705   13.3253   -8.3470 H       1  UNL1        0.0275
     20 H          12.1263   12.0962   -7.8290 H       1  UNL1        0.0275
     21 C           6.7998   13.5915   -5.2496 C.ar    1  UNL1        0.0592
     22 C           7.1582   14.5953   -4.3240 C.ar    1  UNL1       -0.0272
     23 C           8.1471   14.2785   -3.2396 C.3     1  UNL1       -0.0379
     24 H           8.0982   15.0244   -2.4486 H       1  UNL1        0.0278
     25 H           9.1543   14.3000   -3.6627 H       1  UNL1        0.0278
     26 H           7.9661   13.2805   -2.8181 H       1  UNL1        0.0278
     27 C           6.6539   15.8778   -4.4479 C.ar    1  UNL1       -0.0570
     28 H           6.9428   16.6306   -3.7276 H       1  UNL1        0.0621
     29 C           5.8018   16.2088   -5.4872 C.ar    1  UNL1       -0.0611
     30 H           5.4140   17.2119   -5.5790 H       1  UNL1        0.0618
     31 C           5.4561   15.2363   -6.4056 C.ar    1  UNL1       -0.0570
     32 H           4.7871   15.4812   -7.2189 H       1  UNL1        0.0621
     33 C           5.9333   13.9370   -6.3071 C.ar    1  UNL1       -0.0272
     34 C           5.4671   12.9350   -7.3224 C.3     1  UNL1       -0.0379
     35 H           5.6724   11.9223   -6.9911 H       1  UNL1        0.0278
     36 H           5.9691   13.0927   -8.2772 H       1  UNL1        0.0278
     37 H           4.3967   13.0466   -7.4907 H       1  UNL1        0.0278
     38 C           6.9525    8.2781   -5.1801 C.ar    1  UNL1        0.0592
     39 C           7.3823    7.2702   -4.2946 C.ar    1  UNL1       -0.0272
     40 C           8.3659    7.6118   -3.2132 C.3     1  UNL1       -0.0379
     41 H           8.1452    8.5990   -2.7867 H       1  UNL1        0.0278
     42 H           9.3725    7.6324   -3.6368 H       1  UNL1        0.0278
     43 H           8.3465    6.8603   -2.4264 H       1  UNL1        0.0278
     44 C           6.9366    5.9690   -4.4523 C.ar    1  UNL1       -0.0570
     45 H           7.2801    5.2067   -3.7667 H       1  UNL1        0.0621
     46 C           6.0738    5.6330   -5.4810 C.ar    1  UNL1       -0.0611
     47 H           5.7391    4.6140   -5.6020 H       1  UNL1        0.0618
     48 C           5.6339    6.6206   -6.3435 C.ar    1  UNL1       -0.0570
     49 H           4.9386    6.3707   -7.1328 H       1  UNL1        0.0621
     50 C           6.0479    7.9363   -6.2063 C.ar    1  UNL1       -0.0272
     51 C           5.4672    8.9924   -7.0982 C.3     1  UNL1       -0.0379
     52 H           5.3192    9.9100   -6.5288 H       1  UNL1        0.0278
     53 H           4.5103    8.6624   -7.4978 H       1  UNL1        0.0278
     54 H           6.1235    9.2169   -7.9375 H       1  UNL1        0.0278
@<TRIPOS>BOND
     1    19    17    1
     2    36    34    1
     3    16    13    1
     4     9     8    1
     5     5     3    1
     6    54    51    1
     7    20    17    1
     8    15    13    1
     9    17     7    1
    10    17    18    1
    11    53    51    1
    12    13     6    1
    13    13    14    1
    14    37    34    1
    15     7     6    2
    16     7     8    1
    17     6     3    1
    18    34    35    1
    19    34    33    1
    20    32    31    1
    21     8    10    1
    22     8    11    1
    23    49    48    1
    24     3     4    1
    25     3    12    1
    26    51    52    1
    27    51    50    1
    28    31    33   ar
    29    31    29   ar
    30    48    50   ar
    31    48    46   ar
    32    33    21   ar
    33    50    38   ar
    34    11    12    2
    35    11     1    1
    36    12     2    1
    37    47    46    1
    38    30    29    1
    39    29    27   ar
    40    46    44   ar
    41    21     1    1
    42    21    22   ar
    43    38     2    1
    44    38    39   ar
    45    44    39   ar
    46    44    45    1
    47    27    22   ar
    48    27    28    1
    49    22    23    1
    50    39    40    1
    51    25    23    1
    52    42    40    1
    53    23    26    1
    54    23    24    1
    55    40    41    1
    56    40    43    1
