@<TRIPOS>MOLECULE
1,2
 54 56 0 0 0
SMALL
GASTEIGER

@<TRIPOS>ATOM
      1 N           6.3899    5.1113    5.0477 N.pl3   1  UNL1       -0.2169
      2 N           6.5207    2.3638    5.1115 N.pl3   1  UNL1       -0.2169
      3 C           5.1424    2.3372    7.2431 C.3     1  UNL1        0.0101
      4 H           5.0270    1.2859    6.9718 H       1  UNL1        0.0372
      5 H           5.6627    2.3773    8.2081 H       1  UNL1        0.0372
      6 C           3.7917    3.0032    7.4090 C.2     1  UNL1       -0.0677
      7 C           3.7327    4.3319    7.3803 C.2     1  UNL1       -0.0677
      8 C           5.0190    5.1066    7.1801 C.3     1  UNL1        0.0101
      9 H           5.5350    5.1646    8.1475 H       1  UNL1        0.0372
     10 H           4.8113    6.1286    6.8567 H       1  UNL1        0.0372
     11 C           5.8787    4.4105    6.1521 C.2     1  UNL1        0.0543
     12 C           5.9384    3.0571    6.1814 C.2     1  UNL1        0.0543
     13 C           2.6445    2.0572    7.5893 C.3     1  UNL1       -0.0432
     14 H           1.7157    2.5685    7.8220 H       1  UNL1        0.0275
     15 H           2.8645    1.3579    8.3959 H       1  UNL1        0.0275
     16 H           2.4971    1.4760    6.6783 H       1  UNL1        0.0275
     17 C           2.5067    5.1801    7.5249 C.3     1  UNL1       -0.0432
     18 H           1.6286    4.6011    7.7934 H       1  UNL1        0.0275
     19 H           2.3023    5.6991    6.5879 H       1  UNL1        0.0275
     20 H           2.6691    5.9358    8.2933 H       1  UNL1        0.0275
     21 C           6.8829    6.3983    5.2087 C.ar    1  UNL1        0.0592
     22 C           6.4722    7.3962    4.2977 C.ar    1  UNL1       -0.0272
     23 C           5.4850    7.0338    3.2234 C.3     1  UNL1       -0.0379
     24 H           5.7163    6.0406    2.8036 H       1  UNL1        0.0278
     25 H           5.4890    7.7819    2.4324 H       1  UNL1        0.0278
     26 H           4.4816    7.0056    3.6573 H       1  UNL1        0.0278
     27 C           6.9344    8.6935    4.4299 C.ar    1  UNL1       -0.0570
     28 H           6.6043    9.4472    3.7283 H       1  UNL1        0.0621
     29 C           7.7992    9.0390    5.4554 C.ar    1  UNL1       -0.0611
     30 H           8.1463   10.0560    5.5568 H       1  UNL1        0.0618
     31 C           8.2265    8.0630    6.3379 C.ar    1  UNL1       -0.0570
     32 H           8.9265    8.3200    7.1212 H       1  UNL1        0.0621
     33 C           7.7956    6.7506    6.2277 C.ar    1  UNL1       -0.0272
     34 C           8.3720    5.6963    7.1264 C.3     1  UNL1       -0.0379
     35 H           9.3335    6.0221    7.5192 H       1  UNL1        0.0278
     36 H           8.5106    4.7732    6.5583 H       1  UNL1        0.0278
     37 H           7.7192    5.4810    7.9711 H       1  UNL1        0.0278
     38 C           7.0509    1.0931    5.2852 C.ar    1  UNL1        0.0592
     39 C           7.9248    0.7355    6.3360 C.ar    1  UNL1       -0.0272
     40 C           8.3824    1.7322    7.3614 C.3     1  UNL1       -0.0379
     41 H           9.4409    1.5882    7.5748 H       1  UNL1        0.0278
     42 H           7.8372    1.6060    8.2970 H       1  UNL1        0.0278
     43 H           8.2235    2.7478    7.0075 H       1  UNL1        0.0278
     44 C           8.4197   -0.5583    6.4062 C.ar    1  UNL1       -0.0570
     45 H           9.0930   -0.8122    7.2134 H       1  UNL1        0.0621
     46 C           8.0870   -1.5168    5.4674 C.ar    1  UNL1       -0.0611
     47 H           8.4872   -2.5165    5.5399 H       1  UNL1        0.0618
     48 C           7.2321   -1.1757    4.4322 C.ar    1  UNL1       -0.0570
     49 H           6.9552   -1.9182    3.6963 H       1  UNL1        0.0621
     50 C           6.7116    0.1017    4.3342 C.ar    1  UNL1       -0.0272
     51 C           5.7174    0.4390    3.2575 C.3     1  UNL1       -0.0379
     52 H           5.7503   -0.3044    2.4626 H       1  UNL1        0.0278
     53 H           5.9082    1.4436    2.8424 H       1  UNL1        0.0278
     54 H           4.7134    0.4255    3.6921 H       1  UNL1        0.0278
@<TRIPOS>BOND
     1    25    23    1
     2    52    51    1
     3    24    23    1
     4    53    51    1
     5    23    26    1
     6    23    22    1
     7    51    54    1
     8    51    50    1
     9    49    48    1
    10    28    27    1
    11    22    27   ar
    12    22    21   ar
    13    50    48   ar
    14    50    38   ar
    15    27    29   ar
    16    48    46   ar
    17     1    21    1
    18     1    11    1
    19     2    38    1
    20     2    12    1
    21    21    33   ar
    22    38    39   ar
    23    29    30    1
    24    29    31   ar
    25    46    47    1
    26    46    44   ar
    27    11    12    2
    28    11     8    1
    29    12     3    1
    30    33    31   ar
    31    33    34    1
    32    39    44   ar
    33    39    40    1
    34    31    32    1
    35    44    45    1
    36    36    34    1
    37    19    17    1
    38    16    13    1
    39    10     8    1
    40     4     3    1
    41    43    40    1
    42    34    35    1
    43    34    37    1
    44     8     7    1
    45     8     9    1
    46     3     6    1
    47     3     5    1
    48    40    41    1
    49    40    42    1
    50     7     6    2
    51     7    17    1
    52     6    13    1
    53    17    18    1
    54    17    20    1
    55    13    14    1
    56    13    15    1
