@<TRIPOS>MOLECULE
1,2
 184 189 0 0 0
SMALL
GASTEIGER

@<TRIPOS>ATOM
      1 N           1.7747   12.3401    6.8325 N.pl3   1  UNL1       -0.2377
      2 N           1.4875   12.5481    9.6630 N.pl3   1  UNL1       -0.2198
      3 C           0.0534   13.5025    5.5314 C.3     1  UNL1       -0.0359
      4 H          -0.9758   13.8190    5.6748 H       1  UNL1        0.0255
      5 H           0.0786   12.6806    4.8164 H       1  UNL1        0.0255
      6 H           0.6115   14.3328    5.1007 H       1  UNL1        0.0255
      7 C           0.6755   13.0776    6.8403 C.3     1  UNL1        0.0968
      8 C           0.0219   13.4646    8.0122 C.2     1  UNL1       -0.0383
      9 H          -0.8928   14.0226    7.8785 H       1  UNL1        0.0610
     10 C           0.3989   13.2209    9.3361 C.2     1  UNL1        0.0263
     11 C          -0.5078   13.7445   10.4240 C.3     1  UNL1       -0.0248
     12 H          -1.4603   14.0707   10.0167 H       1  UNL1        0.0290
     13 H          -0.0405   14.5877   10.9313 H       1  UNL1        0.0290
     14 H          -0.6844   12.9685   11.1684 H       1  UNL1        0.0290
     15 C           2.4135   12.0737    5.6022 C.ar    1  UNL1        0.0500
     16 C           3.1191   13.0755    4.9371 C.ar    1  UNL1       -0.0313
     17 H           3.1669   14.0685    5.3642 H       1  UNL1        0.0643
     18 C           3.7673   12.8052    3.7409 C.ar    1  UNL1       -0.0150
     19 C           3.6934   11.5287    3.1978 C.ar    1  UNL1       -0.0462
     20 H           4.1768   11.3208    2.2543 H       1  UNL1        0.0630
     21 C           2.9885   10.5198    3.8457 C.ar    1  UNL1       -0.0150
     22 C           2.3631   10.7912    5.0547 C.ar    1  UNL1       -0.0313
     23 H           1.8144   10.0103    5.5679 H       1  UNL1        0.0643
     24 C           4.5027   13.8809    3.0320 C.ar    1  UNL1       -0.0109
     25 C           3.8364   14.6765    2.0985 C.ar    1  UNL1       -0.0366
     26 C           4.5392   15.6771    1.4428 C.ar    1  UNL1       -0.0543
     27 H           4.0287   16.3012    0.7236 H       1  UNL1        0.0623
     28 C           5.8848   15.8999    1.6860 C.ar    1  UNL1       -0.0442
     29 C           6.5268   15.0998    2.6187 C.ar    1  UNL1       -0.0543
     30 H           7.5739   15.2620    2.8228 H       1  UNL1        0.0623
     31 C           5.8559   14.0965    3.3004 C.ar    1  UNL1       -0.0366
     32 C           2.3650   14.4761    1.8129 C.3     1  UNL1       -0.0209
     33 H           2.0162   13.6083    2.3814 H       1  UNL1        0.0344
     34 C           2.1212   14.1935    0.3301 C.3     1  UNL1       -0.0586
     35 H           1.0686   13.9795    0.1575 H       1  UNL1        0.0235
     36 H           2.7058   13.3342    0.0099 H       1  UNL1        0.0235
     37 H           2.4002   15.0461   -0.2836 H       1  UNL1        0.0235
     38 C           1.5648   15.6971    2.2728 C.3     1  UNL1       -0.0586
     39 H           0.4990   15.5240    2.1377 H       1  UNL1        0.0235
     40 H           1.8446   16.5801    1.7035 H       1  UNL1        0.0235
     41 H           1.7538   15.8982    3.3254 H       1  UNL1        0.0235
     42 C           6.6250   16.9932    0.9545 C.3     1  UNL1       -0.0215
     43 H           5.9216   17.4849    0.2727 H       1  UNL1        0.0343
     44 C           7.1490   18.0443    1.9353 C.3     1  UNL1       -0.0586
     45 H           7.6273   18.8591    1.3958 H       1  UNL1        0.0235
     46 H           7.8771   17.6092    2.6152 H       1  UNL1        0.0235
     47 H           6.3309   18.4519    2.5255 H       1  UNL1        0.0235
     48 C           7.7679   16.4128    0.1193 C.3     1  UNL1       -0.0586
     49 H           8.2549   17.1997   -0.4529 H       1  UNL1        0.0235
     50 H           7.3881   15.6645   -0.5730 H       1  UNL1        0.0235
     51 H           8.5122   15.9423    0.7568 H       1  UNL1        0.0235
     52 C           6.5899   13.2591    4.3229 C.3     1  UNL1       -0.0209
     53 H           5.8794   12.5579    4.7739 H       1  UNL1        0.0344
     54 C           7.1555   14.1394    5.4389 C.3     1  UNL1       -0.0586
     55 H           7.6137   13.5260    6.2112 H       1  UNL1        0.0235
     56 H           6.3613   14.7275    5.8932 H       1  UNL1        0.0235
     57 H           7.9085   14.8234    5.0557 H       1  UNL1        0.0235
     58 C           7.7011   12.4449    3.6573 C.3     1  UNL1       -0.0586
     59 H           8.1915   11.8086    4.3909 H       1  UNL1        0.0235
     60 H           8.4505   13.0972    3.2157 H       1  UNL1        0.0235
     61 H           7.2903   11.8148    2.8711 H       1  UNL1        0.0235
     62 C           2.8876    9.1911    3.1942 C.ar    1  UNL1       -0.0109
     63 C           1.9557    9.0025    2.1717 C.ar    1  UNL1       -0.0366
     64 C           1.9564    7.8044    1.4728 C.ar    1  UNL1       -0.0543
     65 H           1.2470    7.6565    0.6711 H       1  UNL1        0.0623
     66 C           2.8634    6.7966    1.7576 C.ar    1  UNL1       -0.0442
     67 C           3.7388    6.9806    2.8174 C.ar    1  UNL1       -0.0543
     68 H           4.4341    6.1955    3.0695 H       1  UNL1        0.0623
     69 C           3.7612    8.1601    3.5459 C.ar    1  UNL1       -0.0366
     70 C           0.9429   10.0728    1.8301 C.3     1  UNL1       -0.0209
     71 H           1.1673   10.9659    2.4216 H       1  UNL1        0.0344
     72 C          -0.4633    9.5993    2.2065 C.3     1  UNL1       -0.0586
     73 H          -1.1940   10.3784    1.9979 H       1  UNL1        0.0235
     74 H          -0.5077    9.3571    3.2662 H       1  UNL1        0.0235
     75 H          -0.7367    8.7119    1.6404 H       1  UNL1        0.0235
     76 C           1.0107   10.4623    0.3530 C.3     1  UNL1       -0.0586
     77 H           0.3388   11.2943    0.1536 H       1  UNL1        0.0235
     78 H           0.7228    9.6328   -0.2874 H       1  UNL1        0.0235
     79 H           2.0218   10.7642    0.0901 H       1  UNL1        0.0235
     80 C           2.9128    5.5539    0.9005 C.3     1  UNL1       -0.0215
     81 H           2.1844    5.6712    0.0897 H       1  UNL1        0.0343
     82 C           4.2980    5.3952    0.2691 C.3     1  UNL1       -0.0586
     83 H           4.3024    4.5574   -0.4252 H       1  UNL1        0.0235
     84 H           5.0517    5.2118    1.0305 H       1  UNL1        0.0235
     85 H           4.5718    6.2971   -0.2742 H       1  UNL1        0.0235
     86 C           2.5367    4.3040    1.6961 C.3     1  UNL1       -0.0586
     87 H           2.6037    3.4202    1.0645 H       1  UNL1        0.0235
     88 H           1.5163    4.3873    2.0632 H       1  UNL1        0.0235
     89 H           3.2027    4.1733    2.5455 H       1  UNL1        0.0235
     90 C           4.7672    8.3526    4.6572 C.3     1  UNL1       -0.0209
     91 H           4.4829    9.2408    5.2332 H       1  UNL1        0.0344
     92 C           6.1538    8.6027    4.0575 C.3     1  UNL1       -0.0586
     93 H           6.8836    8.7603    4.8479 H       1  UNL1        0.0235
     94 H           6.1350    9.4861    3.4233 H       1  UNL1        0.0235
     95 H           6.4695    7.7536    3.4553 H       1  UNL1        0.0235
     96 C           4.7954    7.1645    5.6189 C.3     1  UNL1       -0.0586
     97 H           5.4287    7.3949    6.4734 H       1  UNL1        0.0235
     98 H           5.1936    6.2744    5.1388 H       1  UNL1        0.0235
     99 H           3.7931    6.9432    5.9782 H       1  UNL1        0.0235
    100 C           1.8131   12.3764   11.0250 C.ar    1  UNL1        0.0545
    101 C           2.3533   13.4121   11.7848 C.ar    1  UNL1       -0.0309
    102 H           2.5154   14.3818   11.3336 H       1  UNL1        0.0643
    103 C           2.6856   13.2064   13.1168 C.ar    1  UNL1       -0.0150
    104 C           2.4743   11.9613   13.6973 C.ar    1  UNL1       -0.0462
    105 H           2.7121   11.8117   14.7402 H       1  UNL1        0.0630
    106 C           1.9351   10.9206   12.9523 C.ar    1  UNL1       -0.0150
    107 C           1.6112   11.1319   11.6196 C.ar    1  UNL1       -0.0309
    108 H           1.1733   10.3316   11.0376 H       1  UNL1        0.0643
    109 C           3.2194   14.3235   13.9327 C.ar    1  UNL1       -0.0109
    110 C           2.3436   15.0845   14.7109 C.ar    1  UNL1       -0.0366
    111 C           2.8513   16.1179   15.4823 C.ar    1  UNL1       -0.0543
    112 H           2.1756   16.7034   16.0867 H       1  UNL1        0.0623
    113 C           4.2057   16.4158   15.4945 C.ar    1  UNL1       -0.0442
    114 C           5.0555   15.6530   14.7102 C.ar    1  UNL1       -0.0543
    115 H           6.1118   15.8800   14.7122 H       1  UNL1        0.0623
    116 C           4.5850   14.6083   13.9273 C.ar    1  UNL1       -0.0366
    117 C           0.8584   14.7971   14.7158 C.3     1  UNL1       -0.0209
    118 H           0.6601   13.9811   14.0140 H       1  UNL1        0.0344
    119 C           0.0636   16.0183   14.2488 C.3     1  UNL1       -0.0586
    120 H          -0.9931   15.7710   14.1692 H       1  UNL1        0.0235
    121 H           0.4166   16.3478   13.2737 H       1  UNL1        0.0235
    122 H           0.1684   16.8453   14.9464 H       1  UNL1        0.0235
    123 C           0.4001   14.3441   16.1031 C.3     1  UNL1       -0.0586
    124 H          -0.6593   14.0971   16.0883 H       1  UNL1        0.0235
    125 H           0.5606   15.1260   16.8413 H       1  UNL1        0.0235
    126 H           0.9558   13.4618   16.4123 H       1  UNL1        0.0235
    127 C           4.7486   17.5437   16.3380 C.3     1  UNL1       -0.0215
    128 H           5.8328   17.5918   16.1855 H       1  UNL1        0.0343
    129 C           4.1492   18.8839   15.9071 C.3     1  UNL1       -0.0586
    130 H           4.5941   19.6972   16.4764 H       1  UNL1        0.0235
    131 H           3.0747   18.8982   16.0724 H       1  UNL1        0.0235
    132 H           4.3352   19.0581   14.8495 H       1  UNL1        0.0235
    133 C           4.4896   17.2857   17.8237 C.3     1  UNL1       -0.0586
    134 H           4.9420   18.0694   18.4277 H       1  UNL1        0.0235
    135 H           4.9149   16.3294   18.1207 H       1  UNL1        0.0235
    136 H           3.4229   17.2652   18.0326 H       1  UNL1        0.0235
    137 C           5.5458   13.7962   13.0892 C.3     1  UNL1       -0.0209
    138 H           4.9750   13.0355   12.5456 H       1  UNL1        0.0344
    139 C           6.2513   14.6803   12.0593 C.3     1  UNL1       -0.0586
    140 H           6.8945   14.0779   11.4215 H       1  UNL1        0.0235
    141 H           6.8626   15.4359   12.5465 H       1  UNL1        0.0235
    142 H           5.5195   15.1856   11.4326 H       1  UNL1        0.0235
    143 C           6.5648   13.0786   13.9767 C.3     1  UNL1       -0.0586
    144 H           7.2290   12.4695   13.3671 H       1  UNL1        0.0235
    145 H           6.0571   12.4321   14.6893 H       1  UNL1        0.0235
    146 H           7.1697   13.7919   14.5308 H       1  UNL1        0.0235
    147 C           1.6405    9.6044   13.5685 C.ar    1  UNL1       -0.0109
    148 C           0.3615    9.3597   14.0737 C.ar    1  UNL1       -0.0366
    149 C           0.0772    8.1160   14.6155 C.ar    1  UNL1       -0.0543
    150 H          -0.9163    7.9193   14.9876 H       1  UNL1        0.0623
    151 C           1.0390    7.1203   14.6867 C.ar    1  UNL1       -0.0442
    152 C           2.3048    7.3879   14.1901 C.ar    1  UNL1       -0.0543
    153 H           3.0582    6.6167   14.2460 H       1  UNL1        0.0623
    154 C           2.6193    8.6105   13.6153 C.ar    1  UNL1       -0.0366
    155 C          -0.7154   10.4201   14.0099 C.3     1  UNL1       -0.0209
    156 H          -0.2650   11.3508   13.6505 H       1  UNL1        0.0344
    157 C          -1.8046   10.0053   13.0175 C.3     1  UNL1       -0.0586
    158 H          -2.5623   10.7828   12.9392 H       1  UNL1        0.0235
    159 H          -2.2880    9.0855   13.3376 H       1  UNL1        0.0235
    160 H          -1.3752    9.8383   12.0319 H       1  UNL1        0.0235
    161 C          -1.3103   10.6981   15.3912 C.3     1  UNL1       -0.0586
    162 H          -2.0160   11.5245   15.3345 H       1  UNL1        0.0235
    163 H          -0.5233   10.9638   16.0934 H       1  UNL1        0.0235
    164 H          -1.8367    9.8293   15.7774 H       1  UNL1        0.0235
    165 C           0.7162    5.7643   15.2652 C.3     1  UNL1       -0.0215
    166 H           1.6348    5.1665   15.2660 H       1  UNL1        0.0343
    167 C           0.2229    5.8767   16.7087 C.3     1  UNL1       -0.0586
    168 H           0.0693    4.8864   17.1325 H       1  UNL1        0.0235
    169 H          -0.7188    6.4176   16.7569 H       1  UNL1        0.0235
    170 H           0.9529    6.4052   17.3180 H       1  UNL1        0.0235
    171 C          -0.3160    5.0485   14.3908 C.3     1  UNL1       -0.0586
    172 H          -0.5009    4.0446   14.7671 H       1  UNL1        0.0235
    173 H           0.0430    4.9763   13.3666 H       1  UNL1        0.0235
    174 H          -1.2577    5.5920   14.3845 H       1  UNL1        0.0235
    175 C           4.0021    8.8716   13.0639 C.3     1  UNL1       -0.0209
    176 H           3.9452    9.7401   12.3977 H       1  UNL1        0.0344
    177 C           4.5354    7.6891   12.2537 C.3     1  UNL1       -0.0586
    178 H           5.4453    7.9790   11.7329 H       1  UNL1        0.0235
    179 H           3.8008    7.3700   11.5177 H       1  UNL1        0.0235
    180 H           4.7732    6.8448   12.8957 H       1  UNL1        0.0235
    181 C           4.9622    9.2125   14.2065 C.3     1  UNL1       -0.0586
    182 H           5.9549    9.4199   13.8136 H       1  UNL1        0.0235
    183 H           5.0301    8.3831   14.9075 H       1  UNL1        0.0235
    184 H           4.6137   10.0900   14.7457 H       1  UNL1        0.0235
@<TRIPOS>BOND
     1    50    48    1
     2    49    48    1
     3    83    82    1
     4    78    76    1
     5    37    34    1
     6    85    82    1
     7    36    34    1
     8    81    80    1
     9    79    76    1
    10    48    51    1
    11    48    42    1
    12    77    76    1
    13    35    34    1
    14    82    80    1
    15    82    84    1
    16    43    42    1
    17    34    32    1
    18    76    70    1
    19    65    64    1
    20    27    26    1
    21    80    86    1
    22    80    66    1
    23    42    28    1
    24    42    44    1
    25    87    86    1
    26    45    44    1
    27    26    28   ar
    28    26    25   ar
    29    64    66   ar
    30    64    63   ar
    31    75    72    1
    32    28    29   ar
    33    86    88    1
    34    86    89    1
    35    40    38    1
    36    66    67   ar
    37    32    25    1
    38    32    38    1
    39    32    33    1
    40    70    63    1
    41    70    72    1
    42    70    71    1
    43    44    47    1
    44    44    46    1
    45    73    72    1
    46    25    24   ar
    47    39    38    1
    48    63    62   ar
    49    72    74    1
    50    20    19    1
    51    38    41    1
    52    29    30    1
    53    29    31   ar
    54    67    68    1
    55    67    69   ar
    56    61    58    1
    57    24    31   ar
    58    24    18    1
    59    62    69   ar
    60    62    21    1
    61    19    18   ar
    62    19    21   ar
    63    60    58    1
    64    31    52    1
    65    94    92    1
    66    95    92    1
    67    69    90    1
    68    58    52    1
    69    58    59    1
    70    18    16   ar
    71    21    22   ar
    72    92    90    1
    73    92    93    1
    74    52    53    1
    75    52    54    1
    76    90    91    1
    77    90    96    1
    78     5     3    1
    79    16    17    1
    80    16    15   ar
    81    22    23    1
    82    22    15   ar
    83    57    54    1
    84     6     3    1
    85    98    96    1
    86    54    56    1
    87    54    55    1
    88     3     4    1
    89     3     7    1
    90    15     1    1
    91    96    99    1
    92    96    97    1
    93     1     7    1
    94     7     8    1
    95     9     8    1
    96     8    10    2
    97    10     2    1
    98    10    11    1
    99     2   100    1
   100    12    11    1
   101    11    13    1
   102    11    14    1
   103   100   107   ar
   104   100   101   ar
   105   108   107    1
   106   102   101    1
   107   140   139    1
   108   142   139    1
   109   179   177    1
   110   107   106   ar
   111   178   177    1
   112   101   103   ar
   113   160   157    1
   114   139   141    1
   115   139   137    1
   116   177   180    1
   117   177   175    1
   118   176   175    1
   119   138   137    1
   120   158   157    1
   121   106   147    1
   122   106   104   ar
   123   157   159    1
   124   157   155    1
   125   175   154    1
   126   175   181    1
   127   137   116    1
   128   137   143    1
   129   103   104   ar
   130   103   109    1
   131   121   119    1
   132   173   171    1
   133   144   143    1
   134   147   154   ar
   135   147   148   ar
   136   154   152   ar
   137   156   155    1
   138   104   105    1
   139   182   181    1
   140   116   109   ar
   141   116   114   ar
   142   109   110   ar
   143   143   146    1
   144   143   145    1
   145   155   148    1
   146   155   161    1
   147   118   117    1
   148   148   149   ar
   149   120   119    1
   150   152   153    1
   151   152   151   ar
   152   181   184    1
   153   181   183    1
   154   119   117    1
   155   119   122    1
   156   174   171    1
   157   171   172    1
   158   171   165    1
   159   149   151   ar
   160   149   150    1
   161   151   165    1
   162   114   115    1
   163   114   113   ar
   164   110   117    1
   165   110   111   ar
   166   117   123    1
   167   132   129    1
   168   165   166    1
   169   165   167    1
   170   162   161    1
   171   161   164    1
   172   161   163    1
   173   111   113   ar
   174   111   112    1
   175   113   127    1
   176   129   131    1
   177   129   127    1
   178   129   130    1
   179   124   123    1
   180   123   126    1
   181   123   125    1
   182   128   127    1
   183   127   133    1
   184   167   169    1
   185   167   168    1
   186   167   170    1
   187   133   136    1
   188   133   135    1
   189   133   134    1
