@<TRIPOS>MOLECULE
1,2
 84 85 0 0 0
SMALL
GASTEIGER

@<TRIPOS>ATOM
      1 N           3.7652    2.4708    4.3379 N.pl3   1  UNL1       -0.2198
      2 N           2.1571    3.9895    6.1213 N.pl3   1  UNL1       -0.2377
      3 C           2.8470    0.2741    3.7327 C.3     1  UNL1       -0.0248
      4 H           2.4509   -0.5431    4.3302 H       1  UNL1        0.0290
      5 H           3.8590    0.0311    3.4139 H       1  UNL1        0.0290
      6 H           2.2248    0.3752    2.8437 H       1  UNL1        0.0290
      7 C           2.8290    1.5631    4.5190 C.2     1  UNL1        0.0263
      8 C           1.7949    1.7226    5.4501 C.2     1  UNL1       -0.0383
      9 H           1.1514    0.8666    5.5936 H       1  UNL1        0.0610
     10 C           1.4556    2.8650    6.1755 C.3     1  UNL1        0.0968
     11 C           0.2465    2.7309    7.0751 C.3     1  UNL1       -0.0359
     12 H           0.3157    1.7979    7.6316 H       1  UNL1        0.0255
     13 H          -0.6701    2.6984    6.4877 H       1  UNL1        0.0255
     14 H           0.1832    3.5579    7.7784 H       1  UNL1        0.0255
     15 C           4.7171    2.3427    3.3070 C.ar    1  UNL1        0.0539
     16 C           4.3471    2.4682    1.9697 C.ar    1  UNL1       -0.0350
     17 H           3.3010    2.6018    1.7483 H       1  UNL1        0.0640
     18 C           5.3082    2.4646    0.9714 C.ar    1  UNL1       -0.0399
     19 C           6.6396    2.3038    1.3400 C.ar    1  UNL1       -0.0543
     20 H           7.3933    2.2996    0.5692 H       1  UNL1        0.0623
     21 C           7.0377    2.1568    2.6648 C.ar    1  UNL1       -0.0399
     22 C           6.0607    2.1830    3.6477 C.ar    1  UNL1       -0.0350
     23 H           6.3010    2.0667    4.6956 H       1  UNL1        0.0640
     24 C           4.9600    2.6429   -0.4991 C.3     1  UNL1       -0.0126
     25 C           3.4615    2.8575   -0.7270 C.3     1  UNL1       -0.0560
     26 H           3.2712    2.9878   -1.7907 H       1  UNL1        0.0238
     27 H           3.1146    3.7497   -0.2108 H       1  UNL1        0.0238
     28 H           2.8855    1.9998   -0.3871 H       1  UNL1        0.0238
     29 C           5.3902    1.3896   -1.2740 C.3     1  UNL1       -0.0560
     30 H           5.1466    1.4981   -2.3289 H       1  UNL1        0.0238
     31 H           4.8733    0.5133   -0.8882 H       1  UNL1        0.0238
     32 H           6.4595    1.2181   -1.1875 H       1  UNL1        0.0238
     33 C           5.7020    3.8731   -1.0405 C.3     1  UNL1       -0.0560
     34 H           5.4222    4.0544   -2.0763 H       1  UNL1        0.0238
     35 H           6.7792    3.7393   -0.9997 H       1  UNL1        0.0238
     36 H           5.4466    4.7525   -0.4530 H       1  UNL1        0.0238
     37 C           8.5168    2.0041    2.9885 C.3     1  UNL1       -0.0126
     38 C           9.0868    0.7964    2.2316 C.3     1  UNL1       -0.0560
     39 H          10.1392    0.6653    2.4745 H       1  UNL1        0.0238
     40 H           9.0019    0.9219    1.1560 H       1  UNL1        0.0238
     41 H           8.5525   -0.1089    2.5124 H       1  UNL1        0.0238
     42 C           9.2434    3.2849    2.5547 C.3     1  UNL1       -0.0560
     43 H          10.3024    3.2167    2.7950 H       1  UNL1        0.0238
     44 H           8.8241    4.1450    3.0727 H       1  UNL1        0.0238
     45 H           9.1463    3.4515    1.4854 H       1  UNL1        0.0238
     46 C           8.7742    1.7909    4.4827 C.3     1  UNL1       -0.0560
     47 H           9.8424    1.6710    4.6523 H       1  UNL1        0.0238
     48 H           8.2743    0.8942    4.8415 H       1  UNL1        0.0238
     49 H           8.4354    2.6442    5.0655 H       1  UNL1        0.0238
     50 C           1.6332    5.2030    6.5817 C.ar    1  UNL1        0.0494
     51 C           0.3447    5.6330    6.2501 C.ar    1  UNL1       -0.0354
     52 H          -0.2664    4.9804    5.6501 H       1  UNL1        0.0639
     53 C          -0.1101    6.8788    6.6437 C.ar    1  UNL1       -0.0399
     54 C           0.7493    7.7081    7.3638 C.ar    1  UNL1       -0.0543
     55 H           0.3969    8.6805    7.6600 H       1  UNL1        0.0623
     56 C           2.0419    7.3223    7.6901 C.ar    1  UNL1       -0.0399
     57 C           2.4665    6.0586    7.3018 C.ar    1  UNL1       -0.0354
     58 H           3.4565    5.6960    7.5708 H       1  UNL1        0.0639
     59 C          -1.5075    7.3796    6.3077 C.3     1  UNL1       -0.0126
     60 C          -2.3264    6.3576    5.5142 C.3     1  UNL1       -0.0560
     61 H          -3.3137    6.7661    5.3074 H       1  UNL1        0.0238
     62 H          -2.4560    5.4367    6.0784 H       1  UNL1        0.0238
     63 H          -1.8515    6.1306    4.5627 H       1  UNL1        0.0238
     64 C          -1.3943    8.6562    5.4634 C.3     1  UNL1       -0.0560
     65 H          -2.3849    9.0171    5.1940 H       1  UNL1        0.0238
     66 H          -0.8392    8.4518    4.5509 H       1  UNL1        0.0238
     67 H          -0.8800    9.4459    6.0035 H       1  UNL1        0.0238
     68 C          -2.2585    7.6811    7.6124 C.3     1  UNL1       -0.0560
     69 H          -3.2680    8.0232    7.3936 H       1  UNL1        0.0238
     70 H          -1.7567    8.4520    8.1904 H       1  UNL1        0.0238
     71 H          -2.3232    6.7840    8.2249 H       1  UNL1        0.0238
     72 C           3.0225    8.2322    8.4156 C.3     1  UNL1       -0.0126
     73 C           3.5513    7.5273    9.6724 C.3     1  UNL1       -0.0560
     74 H           4.2061    8.1959   10.2274 H       1  UNL1        0.0238
     75 H           4.1169    6.6344    9.4215 H       1  UNL1        0.0238
     76 H           2.7244    7.2403   10.3190 H       1  UNL1        0.0238
     77 C           2.3910    9.5593    8.8461 C.3     1  UNL1       -0.0560
     78 H           3.1316   10.1608    9.3694 H       1  UNL1        0.0238
     79 H           1.5548    9.3928    9.5215 H       1  UNL1        0.0238
     80 H           2.0487   10.1280    7.9849 H       1  UNL1        0.0238
     81 C           4.1858    8.5401    7.4609 C.3     1  UNL1       -0.0560
     82 H           4.9168    9.1777    7.9541 H       1  UNL1        0.0238
     83 H           3.8167    9.0553    6.5769 H       1  UNL1        0.0238
     84 H           4.6842    7.6284    7.1341 H       1  UNL1        0.0238
@<TRIPOS>BOND
     1    30    29    1
     2    34    33    1
     3    26    25    1
     4    29    32    1
     5    29    31    1
     6    29    24    1
     7    33    35    1
     8    33    24    1
     9    33    36    1
    10    25    24    1
    11    25    28    1
    12    25    27    1
    13    24    18    1
    14    20    19    1
    15    18    19   ar
    16    18    16   ar
    17    40    38    1
    18    19    21   ar
    19    45    42    1
    20    17    16    1
    21    16    15   ar
    22    38    39    1
    23    38    41    1
    24    38    37    1
    25    42    43    1
    26    42    37    1
    27    42    44    1
    28    21    37    1
    29    21    22   ar
    30     6     3    1
    31    37    46    1
    32    15    22   ar
    33    15     1    1
    34     5     3    1
    35    22    23    1
    36     3     4    1
    37     3     7    1
    38     1     7    1
    39    46    47    1
    40    46    48    1
    41    46    49    1
    42     7     8    2
    43    66    64    1
    44    63    60    1
    45    65    64    1
    46    61    60    1
    47     8     9    1
    48     8    10    1
    49    64    67    1
    50    64    59    1
    51    60    62    1
    52    60    59    1
    53    52    51    1
    54     2    10    1
    55     2    50    1
    56    10    11    1
    57    51    50   ar
    58    51    53   ar
    59    59    53    1
    60    59    68    1
    61    13    11    1
    62    83    81    1
    63    50    57   ar
    64    53    54   ar
    65    11    12    1
    66    11    14    1
    67    84    81    1
    68    57    58    1
    69    57    56   ar
    70    54    55    1
    71    54    56   ar
    72    69    68    1
    73    81    82    1
    74    81    72    1
    75    68    70    1
    76    68    71    1
    77    56    72    1
    78    80    77    1
    79    72    77    1
    80    72    73    1
    81    77    78    1
    82    77    79    1
    83    75    73    1
    84    73    74    1
    85    73    76    1
