@<TRIPOS>MOLECULE
50,51
 69 70 0 0 0
SMALL
GASTEIGER

@<TRIPOS>ATOM
      1 SI          3.1098   16.1912    5.7517 Si      1  UNL1        0.0000
      2 C           3.9255   13.8924    7.1513 C.ar    1  UNL1        0.0000
      3 C           1.5397   13.4647    7.8649 C.3     1  UNL1        0.0000
      4 H           1.4082   14.0466    6.9481 H       1  UNL1        0.0000
      5 C           5.3125   13.7826    7.4122 C.ar    1  UNL1        0.0000
      6 C           3.0274   13.3267    8.0819 C.ar    1  UNL1        0.0000
      7 C           0.8762   12.0975    7.6824 C.3     1  UNL1        0.0000
      8 H           1.3592   11.5492    6.8763 H       1  UNL1        0.0000
      9 H          -0.1808   12.2168    7.4476 H       1  UNL1        0.0000
     10 H           0.9576   11.5047    8.5906 H       1  UNL1        0.0000
     11 C           6.3255   14.4268    6.4887 C.3     1  UNL1        0.0000
     12 H           5.7800   15.1037    5.8143 H       1  UNL1        0.0000
     13 C           5.7524   13.0748    8.5185 C.ar    1  UNL1        0.0000
     14 H           6.8127   12.9730    8.7001 H       1  UNL1        0.0000
     15 C           4.8622   12.4997    9.4063 C.ar    1  UNL1        0.0000
     16 H           5.2238   11.9534   10.2650 H       1  UNL1        0.0000
     17 C           3.5057   12.6444    9.1871 C.ar    1  UNL1        0.0000
     18 H           2.8077   12.2109    9.8891 H       1  UNL1        0.0000
     19 C           0.8870   14.2310    9.0163 C.3     1  UNL1        0.0000
     20 H           0.9549   13.6694    9.9452 H       1  UNL1        0.0000
     21 H          -0.1648   14.4139    8.8029 H       1  UNL1        0.0000
     22 H           1.3850   15.1871    9.1591 H       1  UNL1        0.0000
     23 C           7.0429   13.3707    5.6364 C.3     1  UNL1        0.0000
     24 H           7.4775   12.6039    6.2762 H       1  UNL1        0.0000
     25 H           7.8456   13.8281    5.0590 H       1  UNL1        0.0000
     26 H           6.3416   12.8924    4.9424 H       1  UNL1        0.0000
     27 C           7.3499   15.2581    7.2668 C.3     1  UNL1        0.0000
     28 H           6.8516   15.9119    7.9787 H       1  UNL1        0.0000
     29 H           7.9345   15.8713    6.5834 H       1  UNL1        0.0000
     30 H           8.0367   14.6193    7.8169 H       1  UNL1        0.0000
     31 C           3.6541   17.1706    3.1477 C.ar    1  UNL1        0.0000
     32 C           2.5751   17.4665    2.2882 C.ar    1  UNL1        0.0000
     33 C           1.2930   16.6724    2.3812 C.3     1  UNL1        0.0000
     34 H           1.4112   15.9670    3.2136 H       1  UNL1        0.0000
     35 C           4.8513   17.9104    3.0047 C.ar    1  UNL1        0.0000
     36 C           4.9418   18.8950    2.0370 C.ar    1  UNL1        0.0000
     37 H           5.8593   19.4510    1.9188 H       1  UNL1        0.0000
     38 C           2.7007   18.4670    1.3385 C.ar    1  UNL1        0.0000
     39 H           1.8701   18.6902    0.6838 H       1  UNL1        0.0000
     40 C           3.8731   19.1849    1.2075 C.ar    1  UNL1        0.0000
     41 H           3.9582   19.9607    0.4607 H       1  UNL1        0.0000
     42 C           0.0973   17.5808    2.6724 C.3     1  UNL1        0.0000
     43 H           0.2856   18.1785    3.5599 H       1  UNL1        0.0000
     44 H          -0.8018   16.9892    2.8386 H       1  UNL1        0.0000
     45 H          -0.0891   18.2551    1.8396 H       1  UNL1        0.0000
     46 C           1.0548   15.8753    1.0948 C.3     1  UNL1        0.0000
     47 H           0.9988   16.5396    0.2352 H       1  UNL1        0.0000
     48 H           0.1168   15.3246    1.1575 H       1  UNL1        0.0000
     49 H           1.8681   15.1697    0.9316 H       1  UNL1        0.0000
     50 N           3.4548   14.4990    5.9973 N.pl3   1  UNL1        0.0000
     51 N           3.5694   16.1434    4.0771 N.pl3   1  UNL1        0.0000
     52 C           4.0242   17.4056    6.9232 C.3     1  UNL1        0.0000
     53 H           5.0640   17.1443    7.0813 H       1  UNL1        0.0000
     54 H           3.5436   17.4131    7.8962 H       1  UNL1        0.0000
     55 H           3.9905   18.4174    6.5321 H       1  UNL1        0.0000
     56 C           1.2677   16.6703    6.0403 C.3     1  UNL1        0.0000
     57 H           1.1133   17.7043    5.7503 H       1  UNL1        0.0000
     58 H           0.9964   16.5851    7.0869 H       1  UNL1        0.0000
     59 H           0.5736   16.0634    5.4678 H       1  UNL1        0.0000
     60 C           6.0324   17.5630    3.8825 C.3     1  UNL1        0.0000
     61 H           5.6299   17.2372    4.8442 H       1  UNL1        0.0000
     62 C           6.9790   18.7341    4.1406 C.3     1  UNL1        0.0000
     63 H           7.5536   18.9849    3.2518 H       1  UNL1        0.0000
     64 H           7.6818   18.4729    4.9297 H       1  UNL1        0.0000
     65 H           6.4216   19.6125    4.4562 H       1  UNL1        0.0000
     66 C           6.8000   16.3873    3.2641 C.3     1  UNL1        0.0000
     67 H           6.1566   15.4944    3.2206 H       1  UNL1        0.0000
     68 H           7.6821   16.1556    3.8594 H       1  UNL1        0.0000
     69 H           7.1197   16.6358    2.2532 H       1  UNL1        0.0000
@<TRIPOS>BOND
     1    47    46    1
     2    41    40    1
     3    39    38    1
     4    49    46    1
     5    46    48    1
     6    46    33    1
     7    40    38   ar
     8    40    36   ar
     9    38    32   ar
    10    45    42    1
    11    37    36    1
    12    36    35   ar
    13    69    66    1
    14    32    33    1
    15    32    31   ar
    16    33    42    1
    17    33    34    1
    18    42    44    1
    19    42    43    1
    20    35    31   ar
    21    35    60    1
    22    31    51    1
    23    67    66    1
    24    63    62    1
    25    66    68    1
    26    66    60    1
    27    60    62    1
    28    60    61    1
    29    51     1    1
    30    62    65    1
    31    62    64    1
    32    26    23    1
    33    25    23    1
    34    59    56    1
    35    23    24    1
    36    23    11    1
    37    57    56    1
    38     1    50    1
    39     1    56    1
    40     1    52    1
    41    12    11    1
    42    50     2    1
    43    56    58    1
    44    11    27    1
    45    11     5    1
    46    55    52    1
    47    29    27    1
    48     8     7    1
    49    52    53    1
    50    52    54    1
    51     4     3    1
    52     2     5   ar
    53     2     6   ar
    54    27    30    1
    55    27    28    1
    56     5    13   ar
    57     9     7    1
    58     7     3    1
    59     7    10    1
    60     3     6    1
    61     3    19    1
    62     6    17   ar
    63    13    14    1
    64    13    15   ar
    65    21    19    1
    66    19    22    1
    67    19    20    1
    68    17    15   ar
    69    17    18    1
    70    15    16    1
