@<TRIPOS>MOLECULE
1,2
 34 36 0 0 0
SMALL
GASTEIGER

@<TRIPOS>ATOM
      1 N           4.7540    7.0804    5.0492 N.pl3   1  UNL1       -0.2381
      2 N           5.9732    9.4441    4.4793 N.pl3   1  UNL1       -0.2161
      3 C           4.1671    5.9250    5.3034 C.2     1  UNL1        0.0130
      4 H           4.7072    5.0359    5.0017 H       1  UNL1        0.0798
      5 C           2.9200    5.8190    5.9284 C.2     1  UNL1       -0.0460
      6 H           2.4898    4.8446    6.1020 H       1  UNL1        0.0631
      7 C           2.2706    6.9627    6.3078 C.2     1  UNL1       -0.0548
      8 H           1.3052    6.9238    6.7927 H       1  UNL1        0.0621
      9 C           2.8652    8.2197    6.0678 C.2     1  UNL1       -0.0139
     10 C           2.2675    9.4307    6.4426 C.2     1  UNL1       -0.0560
     11 H           1.3082    9.4168    6.9368 H       1  UNL1        0.0621
     12 C           2.9135   10.6170    6.1743 C.2     1  UNL1       -0.0598
     13 H           2.4532   11.5519    6.4625 H       1  UNL1        0.0618
     14 C           4.1428   10.6476    5.5370 C.2     1  UNL1       -0.0402
     15 H           4.6145   11.5983    5.3323 H       1  UNL1        0.0634
     16 C           4.7938    9.4731    5.1304 C.2     1  UNL1        0.0636
     17 C           4.1321    8.2235    5.4146 C.3     1  UNL1        0.1493
     18 C           6.6626   10.6627    4.3241 C.ar    1  UNL1        0.0592
     19 C           6.6363   11.3283    3.0904 C.ar    1  UNL1       -0.0272
     20 C           7.3672   12.4947    2.9289 C.ar    1  UNL1       -0.0570
     21 H           7.3383   13.0130    1.9799 H       1  UNL1        0.0621
     22 C           8.1206   13.0088    3.9702 C.ar    1  UNL1       -0.0611
     23 H           8.6836   13.9206    3.8342 H       1  UNL1        0.0618
     24 C           8.1430   12.3536    5.1890 C.ar    1  UNL1       -0.0570
     25 H           8.7270   12.7564    6.0049 H       1  UNL1        0.0621
     26 C           7.4182   11.1878    5.3848 C.ar    1  UNL1       -0.0272
     27 C           5.8033   10.7685    1.9772 C.3     1  UNL1       -0.0379
     28 H           6.0504   11.2394    1.0277 H       1  UNL1        0.0278
     29 H           4.7447   10.9390    2.1779 H       1  UNL1        0.0278
     30 H           5.9546    9.6843    1.9062 H       1  UNL1        0.0278
     31 C           7.4330   10.4811    6.7077 C.3     1  UNL1       -0.0379
     32 H           6.5042   10.6724    7.2469 H       1  UNL1        0.0278
     33 H           8.2641   10.8236    7.3206 H       1  UNL1        0.0278
     34 H           7.5078    9.3989    6.5598 H       1  UNL1        0.0278
@<TRIPOS>BOND
     1    28    27    1
     2    30    27    1
     3    27    29    1
     4    27    19    1
     5    21    20    1
     6    20    19   ar
     7    20    22   ar
     8    19    18   ar
     9    23    22    1
    10    22    24   ar
    11    18     2    1
    12    18    26   ar
    13     2    16    1
    14     4     3    1
    15     1     3    1
    16     1    17    1
    17    16    17    1
    18    16    14    2
    19    24    26   ar
    20    24    25    1
    21     3     5    2
    22    15    14    1
    23    26    31    1
    24    17     9    1
    25    14    12    1
    26     5     6    1
    27     5     7    1
    28     9     7    2
    29     9    10    1
    30    12    10    2
    31    12    13    1
    32     7     8    1
    33    10    11    1
    34    34    31    1
    35    31    32    1
    36    31    33    1
