@<TRIPOS>MOLECULE
1,2
 28 30 0 0 0
SMALL
GASTEIGER

@<TRIPOS>ATOM
      1 N          -5.0060    7.1020    2.9251 N.pl3   1  UNL1       -0.2381
      2 N          -3.0528    6.2454    4.5972 N.pl3   1  UNL1       -0.2166
      3 C          -5.9419    7.5244    2.0956 C.2     1  UNL1        0.0130
      4 H          -5.6669    7.5774    1.0482 H       1  UNL1        0.0798
      5 C          -7.2272    7.8930    2.5065 C.2     1  UNL1       -0.0460
      6 H          -7.9491    8.2250    1.7763 H       1  UNL1        0.0631
      7 C          -7.5376    7.8258    3.8378 C.2     1  UNL1       -0.0548
      8 H          -8.5166    8.1067    4.1998 H       1  UNL1        0.0621
      9 C          -6.5663    7.3892    4.7626 C.2     1  UNL1       -0.0139
     10 C          -6.8088    7.3185    6.1415 C.2     1  UNL1       -0.0560
     11 H          -7.7800    7.5941    6.5230 H       1  UNL1        0.0621
     12 C          -5.7980    6.9190    6.9850 C.2     1  UNL1       -0.0598
     13 H          -5.9715    6.8903    8.0516 H       1  UNL1        0.0618
     14 C          -4.5509    6.5524    6.5035 C.2     1  UNL1       -0.0402
     15 H          -3.7787    6.2719    7.2045 H       1  UNL1        0.0634
     16 C          -4.2554    6.5570    5.1344 C.2     1  UNL1        0.0636
     17 C          -5.2909    7.0201    4.2438 C.3     1  UNL1        0.1493
     18 C          -2.0613    5.7005    5.4112 C.ar    1  UNL1        0.0534
     19 C          -2.2522    4.5402    6.1729 C.ar    1  UNL1       -0.0387
     20 H          -3.2237    4.0657    6.1769 H       1  UNL1        0.0637
     21 C          -1.2080    3.9946    6.8933 C.ar    1  UNL1       -0.0599
     22 H          -1.3704    3.0922    7.4654 H       1  UNL1        0.0618
     23 C           0.0415    4.5951    6.8907 C.ar    1  UNL1       -0.0616
     24 H           0.8519    4.1675    7.4619 H       1  UNL1        0.0618
     25 C           0.2380    5.7543    6.1563 C.ar    1  UNL1       -0.0599
     26 H           1.2035    6.2421    6.1701 H       1  UNL1        0.0618
     27 C          -0.7964    6.2999    5.4222 C.ar    1  UNL1       -0.0387
     28 H          -0.6572    7.2099    4.8489 H       1  UNL1        0.0637
@<TRIPOS>BOND
     1     4     3    1
     2     6     5    1
     3     3     5    2
     4     3     1    1
     5     5     7    1
     6     1    17    1
     7     7     8    1
     8     7     9    2
     9    17     9    1
    10    17    16    1
    11     2    16    1
    12     2    18    1
    13     9    10    1
    14    28    27    1
    15    16    14    2
    16    18    27   ar
    17    18    19   ar
    18    27    25   ar
    19    10    11    1
    20    10    12    2
    21    25    26    1
    22    25    23   ar
    23    19    20    1
    24    19    21   ar
    25    14    12    1
    26    14    15    1
    27    23    21   ar
    28    23    24    1
    29    21    22    1
    30    12    13    1
