@<TRIPOS>MOLECULE
5,6
 76 79 0 0 0
SMALL
GASTEIGER

@<TRIPOS>ATOM
      1 P          12.0133    1.8574    2.3977 P.3     1  UNL1        0.0000
      2 P           9.5135    3.2600    2.9336 P.3     1  UNL1        0.0000
      3 SI         12.3683   -1.0033    3.1222 Si      1  UNL1        0.0000
      4 SI          7.2325    1.7531    4.1279 Si      1  UNL1        0.0000
      5 N          11.6699    0.5859    3.3020 N.3     1  UNL1        0.0000
      6 N           8.9209    2.0907    3.8461 N.3     1  UNL1        0.0000
      7 C          11.2723    3.2829    3.1475 C.3     1  UNL1        0.0000
      8 C          10.9025   -2.2352    3.0464 C.3     1  UNL1        0.0000
      9 C          13.3768   -1.3020    4.7194 C.3     1  UNL1        0.0000
     10 C          13.5272   -1.3003    1.6343 C.3     1  UNL1        0.0000
     11 C          13.7984    2.2296    2.3741 C.ar    1  UNL1        0.0000
     12 C          14.3206    2.8179    3.5215 C.ar    1  UNL1        0.0000
     13 C          15.6806    3.0445    3.6313 C.ar    1  UNL1        0.0000
     14 C          16.5287    2.6810    2.5974 C.ar    1  UNL1        0.0000
     15 C          16.0127    2.0930    1.4540 C.ar    1  UNL1        0.0000
     16 C          14.6527    1.8629    1.3417 C.ar    1  UNL1        0.0000
     17 C          11.6115    1.5974    0.6370 C.ar    1  UNL1        0.0000
     18 C          10.8856    0.4861    0.2357 C.ar    1  UNL1        0.0000
     19 C          10.5844    0.3005   -1.1016 C.ar    1  UNL1        0.0000
     20 C          10.9904    1.2353   -2.0390 C.ar    1  UNL1        0.0000
     21 C          11.6883    2.3639   -1.6376 C.ar    1  UNL1        0.0000
     22 C          11.9959    2.5476   -0.3035 C.ar    1  UNL1        0.0000
     23 C           8.9561    4.9122    3.4708 C.ar    1  UNL1        0.0000
     24 C           9.5981    5.4713    4.5709 C.ar    1  UNL1        0.0000
     25 C           9.1579    6.6723    5.0978 C.ar    1  UNL1        0.0000
     26 C           8.0711    7.3202    4.5331 C.ar    1  UNL1        0.0000
     27 C           7.4285    6.7663    3.4377 C.ar    1  UNL1        0.0000
     28 C           7.8655    5.5647    2.9089 C.ar    1  UNL1        0.0000
     29 C           8.9410    3.1770    1.2031 C.ar    1  UNL1        0.0000
     30 C           9.2113    4.2355    0.3416 C.ar    1  UNL1        0.0000
     31 C           8.7968    4.1791   -0.9748 C.ar    1  UNL1        0.0000
     32 C           8.1181    3.0636   -1.4404 C.ar    1  UNL1        0.0000
     33 C           7.8696    1.9982   -0.5917 C.ar    1  UNL1        0.0000
     34 C           8.2884    2.0506    0.7256 C.ar    1  UNL1        0.0000
     35 C           6.9929   -0.1053    3.7252 C.3     1  UNL1        0.0000
     36 C           6.9556    2.0555    5.9959 C.3     1  UNL1        0.0000
     37 C           5.9353    2.7838    3.1787 C.3     1  UNL1        0.0000
     38 H          11.6691    4.1825    2.6468 H       1  UNL1        0.0000
     39 H          10.0984   -1.9075    3.7051 H       1  UNL1        0.0000
     40 H          10.4956   -2.3516    2.0457 H       1  UNL1        0.0000
     41 H          11.2228   -3.2170    3.3785 H       1  UNL1        0.0000
     42 H          12.7466   -1.1547    5.5965 H       1  UNL1        0.0000
     43 H          14.2186   -0.6186    4.7970 H       1  UNL1        0.0000
     44 H          13.7678   -2.3129    4.7552 H       1  UNL1        0.0000
     45 H          13.7431   -2.3592    1.5378 H       1  UNL1        0.0000
     46 H          14.4722   -0.7832    1.7676 H       1  UNL1        0.0000
     47 H          13.0928   -0.9649    0.6979 H       1  UNL1        0.0000
     48 H          13.6461    3.1026    4.3220 H       1  UNL1        0.0000
     49 H          16.0795    3.5042    4.5236 H       1  UNL1        0.0000
     50 H          17.5913    2.8557    2.6811 H       1  UNL1        0.0000
     51 H          16.6724    1.8100    0.6463 H       1  UNL1        0.0000
     52 H          14.2538    1.4076    0.4460 H       1  UNL1        0.0000
     53 H          10.5716   -0.2256    0.9851 H       1  UNL1        0.0000
     54 H          10.0321   -0.5737   -1.4141 H       1  UNL1        0.0000
     55 H          10.7590    1.0890   -3.0836 H       1  UNL1        0.0000
     56 H          11.9944    3.0987   -2.3679 H       1  UNL1        0.0000
     57 H          12.5439    3.4236    0.0191 H       1  UNL1        0.0000
     58 H          10.4515    4.9596    5.0017 H       1  UNL1        0.0000
     59 H           9.6628    7.1029    5.9500 H       1  UNL1        0.0000
     60 H           7.7249    8.2572    4.9441 H       1  UNL1        0.0000
     61 H           6.5827    7.2714    2.9938 H       1  UNL1        0.0000
     62 H           7.3675    5.1390    2.0490 H       1  UNL1        0.0000
     63 H           9.7383    5.1037    0.7158 H       1  UNL1        0.0000
     64 H           8.9994    5.0058   -1.6402 H       1  UNL1        0.0000
     65 H           7.7872    3.0245   -2.4676 H       1  UNL1        0.0000
     66 H           7.3488    1.1255   -0.9578 H       1  UNL1        0.0000
     67 H           8.1103    1.2287    1.4035 H       1  UNL1        0.0000
     68 H           6.1605   -0.5085    4.2922 H       1  UNL1        0.0000
     69 H           6.7850   -0.2884    2.6745 H       1  UNL1        0.0000
     70 H           7.8861   -0.6676    3.9985 H       1  UNL1        0.0000
     71 H           5.9508    1.7778    6.2949 H       1  UNL1        0.0000
     72 H           7.1021    3.1001    6.2593 H       1  UNL1        0.0000
     73 H           7.6564    1.4625    6.5837 H       1  UNL1        0.0000
     74 H           5.8888    3.7984    3.5616 H       1  UNL1        0.0000
     75 H           6.1437    2.8365    2.1149 H       1  UNL1        0.0000
     76 H           4.9518    2.3419    3.3009 H       1  UNL1        0.0000
@<TRIPOS>BOND
     1    55    20    1
     2    65    32    1
     3    56    21    1
     4    20    21   ar
     5    20    19   ar
     6    64    31    1
     7    21    22   ar
     8    32    31   ar
     9    32    33   ar
    10    54    19    1
    11    19    18   ar
    12    31    30   ar
    13    66    33    1
    14    33    34   ar
    15    22    57    1
    16    22    17   ar
    17    18    17   ar
    18    18    53    1
    19    30    63    1
    20    30    29   ar
    21    52    16    1
    22    17     1    1
    23    51    15    1
    24    47    10    1
    25    34    29   ar
    26    34    67    1
    27    29     2    1
    28    16    15   ar
    29    16    11   ar
    30    15    14   ar
    31    45    10    1
    32    10    46    1
    33    10     3    1
    34    40     8    1
    35    62    28    1
    36    75    37    1
    37    11     1    1
    38    11    12   ar
    39     1     7    1
    40     1     5    1
    41    14    50    1
    42    14    13   ar
    43    38     7    1
    44    69    35    1
    45    28    27   ar
    46    28    23   ar
    47     2     7    1
    48     2    23    1
    49     2     6    1
    50    61    27    1
    51     8     3    1
    52     8    41    1
    53     8    39    1
    54     3     5    1
    55     3     9    1
    56    37    76    1
    57    37    74    1
    58    37     4    1
    59    27    26   ar
    60    23    24   ar
    61    12    13   ar
    62    12    48    1
    63    13    49    1
    64    35    70    1
    65    35     4    1
    66    35    68    1
    67     6     4    1
    68     4    36    1
    69    26    60    1
    70    26    25   ar
    71    24    58    1
    72    24    25   ar
    73     9    44    1
    74     9    43    1
    75     9    42    1
    76    25    59    1
    77    36    72    1
    78    36    71    1
    79    36    73    1
