@<TRIPOS>MOLECULE
8,9
 54 54 0 0 0
SMALL
GASTEIGER

@<TRIPOS>ATOM
      1 SI          2.5902   -1.0263    3.0991 Si      1  UNL1        0.0000
      2 SI          4.2566    0.9995   -1.6001 Si      1  UNL1        0.0000
      3 C           3.5160    3.5891   -0.8709 C.3     1  UNL1        0.0000
      4 C           3.4865   -0.8618    0.4143 C.2     1  UNL1        0.0000
      5 H           2.5121   -1.0719   -0.0215 H       1  UNL1        0.0000
      6 C           5.2440   -0.8253    1.8519 C.2     1  UNL1        0.0000
      7 H           5.8780   -1.0251    2.7113 H       1  UNL1        0.0000
      8 N           3.6170    2.1775   -0.5130 N.3     1  UNL1        0.0000
      9 N           2.4109    0.6794    2.9163 N.3     1  UNL1        0.0000
     10 C           3.8826   -1.2018    1.7343 C.3     1  UNL1        0.0000
     11 C           5.8909    1.3526   -2.5580 C.3     1  UNL1        0.0000
     12 H           5.7526    2.1256   -3.3072 H       1  UNL1        0.0000
     13 H           6.2311    0.4616   -3.0752 H       1  UNL1        0.0000
     14 H           6.6917    1.6731   -1.8981 H       1  UNL1        0.0000
     15 C           4.5844   -0.3161   -0.2919 C.2     1  UNL1        0.0000
     16 C           3.0787    3.7863   -2.3317 C.3     1  UNL1        0.0000
     17 H           3.8385    3.4155   -3.0111 H       1  UNL1        0.0000
     18 H           2.9119    4.8411   -2.5393 H       1  UNL1        0.0000
     19 H           2.1576    3.2401   -2.5153 H       1  UNL1        0.0000
     20 C           2.4737    4.2974    0.0159 C.3     1  UNL1        0.0000
     21 H           2.7403    4.1800    1.0671 H       1  UNL1        0.0000
     22 H           1.4823    3.8871   -0.1656 H       1  UNL1        0.0000
     23 H           2.4486    5.3594   -0.2226 H       1  UNL1        0.0000
     24 C           5.6726   -0.2882    0.6239 C.2     1  UNL1        0.0000
     25 H           6.6981   -0.0427    0.3676 H       1  UNL1        0.0000
     26 C           4.8769    4.2829   -0.6612 C.3     1  UNL1        0.0000
     27 H           5.6165    3.8508   -1.3291 H       1  UNL1        0.0000
     28 H           5.2031    4.1349    0.3699 H       1  UNL1        0.0000
     29 H           4.8045    5.3497   -0.8636 H       1  UNL1        0.0000
     30 C           1.1525    1.3956    2.8378 C.3     1  UNL1        0.0000
     31 C           3.2267   -1.5750    4.8269 C.3     1  UNL1        0.0000
     32 H           2.7664   -0.9984    5.6225 H       1  UNL1        0.0000
     33 H           4.3010   -1.4604    4.9121 H       1  UNL1        0.0000
     34 H           2.9951   -2.6195    5.0019 H       1  UNL1        0.0000
     35 C           1.1586   -2.2535    2.7029 C.3     1  UNL1        0.0000
     36 H           0.4688   -2.3361    3.5361 H       1  UNL1        0.0000
     37 H           1.5579   -3.2452    2.5156 H       1  UNL1        0.0000
     38 H           0.5900   -1.9648    1.8239 H       1  UNL1        0.0000
     39 C           0.0147    0.7569    3.6503 C.3     1  UNL1        0.0000
     40 H          -0.2813   -0.1930    3.2225 H       1  UNL1        0.0000
     41 H          -0.8505    1.4163    3.6685 H       1  UNL1        0.0000
     42 H           0.3478    0.5856    4.6702 H       1  UNL1        0.0000
     43 C           0.7400    1.4580    1.3432 C.3     1  UNL1        0.0000
     44 H           0.3962    0.4717    1.0273 H       1  UNL1        0.0000
     45 H           1.6277    1.7349    0.7373 H       1  UNL1        0.0000
     46 H          -0.0678    2.1720    1.1822 H       1  UNL1        0.0000
     47 C           3.0131    0.3517   -2.9194 C.3     1  UNL1        0.0000
     48 H           2.9808    1.0013   -3.7873 H       1  UNL1        0.0000
     49 H           2.0054    0.2877   -2.5192 H       1  UNL1        0.0000
     50 H           3.2941   -0.6380   -3.2633 H       1  UNL1        0.0000
     51 C           1.3501    2.8245    3.3854 C.3     1  UNL1        0.0000
     52 H           1.5572    2.7694    4.4529 H       1  UNL1        0.0000
     53 H           0.4551    3.4256    3.2354 H       1  UNL1        0.0000
     54 H           2.2007    3.2974    2.8907 H       1  UNL1        0.0000
@<TRIPOS>BOND
     1    48    47    1
     2    12    11    1
     3    50    47    1
     4    13    11    1
     5    17    16    1
     6    47    49    1
     7    47     2    1
     8    11    14    1
     9    11     2    1
    10    18    16    1
    11    19    16    1
    12    16     3    1
    13     2     8    1
    14     2    15    1
    15    27    26    1
    16     3    26    1
    17     3     8    1
    18     3    20    1
    19    29    26    1
    20    26    28    1
    21    15     4    2
    22    15    24    1
    23    23    20    1
    24    22    20    1
    25     5     4    1
    26    20    21    1
    27    25    24    1
    28     4    10    1
    29    24     6    2
    30    45    43    1
    31    44    43    1
    32    46    43    1
    33    43    30    1
    34    10     6    1
    35    10     1    1
    36    38    35    1
    37     6     7    1
    38    37    35    1
    39    35     1    1
    40    35    36    1
    41    30     9    1
    42    30    51    1
    43    30    39    1
    44    54    51    1
    45     9     1    1
    46     1    31    1
    47    40    39    1
    48    53    51    1
    49    51    52    1
    50    39    41    1
    51    39    42    1
    52    31    33    1
    53    31    34    1
    54    31    32    1
