@<TRIPOS>MOLECULE
13,14
 60 61 0 0 0
SMALL
GASTEIGER

@<TRIPOS>ATOM
      1 C           5.2935   -0.5640   14.9173 C.3     1  UNL1       -0.0359
      2 H           4.9000    0.0770   15.7045 H       1  UNL1        0.0255
      3 H           6.2507   -0.9662   15.2367 H       1  UNL1        0.0255
      4 H           4.5930   -1.3879   14.7896 H       1  UNL1        0.0255
      5 C           5.4380    0.2089   13.6290 C.3     1  UNL1        0.0968
      6 C           6.6935    0.2193   13.0266 C.2     1  UNL1       -0.0383
      7 H           7.4731   -0.3404   13.5194 H       1  UNL1        0.0610
      8 C           7.0337    0.8596   11.8396 C.2     1  UNL1        0.0264
      9 C           8.4371    0.6491   11.3224 C.3     1  UNL1       -0.0248
     10 H           8.4126    0.1265   10.3672 H       1  UNL1        0.0290
     11 H           9.0235    0.0630   12.0242 H       1  UNL1        0.0290
     12 H           8.9363    1.6016   11.1555 H       1  UNL1        0.0290
     13 N           4.3832    0.8141   13.1256 N.pl3   1  UNL1       -0.2372
     14 N           6.2064    1.6195   11.1467 N.pl3   1  UNL1       -0.2193
     15 C           3.1664    0.7402   13.8353 C.ar    1  UNL1        0.0551
     16 C           2.8625    1.7419   14.7714 C.ar    1  UNL1       -0.0248
     17 C           1.6667    1.6582   15.4670 C.ar    1  UNL1       -0.0568
     18 H           1.4099    2.4102   16.1964 H       1  UNL1        0.0621
     19 C           0.7920    0.6093   15.2453 C.ar    1  UNL1       -0.0611
     20 H          -0.1299    0.5515   15.8054 H       1  UNL1        0.0618
     21 C           1.0864   -0.3595   14.3035 C.ar    1  UNL1       -0.0568
     22 H           0.3855   -1.1622   14.1351 H       1  UNL1        0.0621
     23 C           2.2693   -0.3077   13.5818 C.ar    1  UNL1       -0.0248
     24 C           3.8468    2.8684   14.9627 C.3     1  UNL1       -0.0287
     25 H           4.6940    2.5074   15.5553 H       1  UNL1        0.0311
     26 H           4.2535    3.1353   13.9739 H       1  UNL1        0.0311
     27 C           3.2781    4.1189   15.6212 C.3     1  UNL1       -0.0612
     28 H           2.3921    4.4644   15.0929 H       1  UNL1        0.0233
     29 H           4.0195    4.9146   15.5988 H       1  UNL1        0.0233
     30 H           3.0133    3.9366   16.6607 H       1  UNL1        0.0233
     31 C           2.6172   -1.3196   12.5192 C.3     1  UNL1       -0.0287
     32 H           3.2348   -0.8129   11.7672 H       1  UNL1        0.0311
     33 H           3.2369   -2.1092   12.9570 H       1  UNL1        0.0311
     34 C           1.4153   -1.9587   11.8317 C.3     1  UNL1       -0.0612
     35 H           0.8747   -2.6191   12.5055 H       1  UNL1        0.0233
     36 H           1.7498   -2.5508   10.9824 H       1  UNL1        0.0233
     37 H           0.7298   -1.1959   11.4690 H       1  UNL1        0.0233
     38 C           6.6623    2.1321    9.9115 C.ar    1  UNL1        0.0596
     39 C           7.2803    3.3905    9.8674 C.ar    1  UNL1       -0.0244
     40 C           7.7205    3.8678    8.6430 C.ar    1  UNL1       -0.0567
     41 H           8.1993    4.8319    8.5757 H       1  UNL1        0.0621
     42 C           7.5544    3.1180    7.4916 C.ar    1  UNL1       -0.0611
     43 H           7.9119    3.5007    6.5465 H       1  UNL1        0.0618
     44 C           6.9211    1.8891    7.5396 C.ar    1  UNL1       -0.0567
     45 H           6.7882    1.3295    6.6270 H       1  UNL1        0.0621
     46 C           6.4654    1.3785    8.7444 C.ar    1  UNL1       -0.0244
     47 C           7.3859    4.1696   11.1522 C.3     1  UNL1       -0.0287
     48 H           6.3829    4.2110   11.5953 H       1  UNL1        0.0311
     49 H           8.0131    3.6154   11.8577 H       1  UNL1        0.0311
     50 C           7.9288    5.5849   11.0137 C.3     1  UNL1       -0.0612
     51 H           8.9455    5.5812   10.6250 H       1  UNL1        0.0233
     52 H           7.9443    6.0661   11.9892 H       1  UNL1        0.0233
     53 H           7.3000    6.1755   10.3514 H       1  UNL1        0.0233
     54 C           5.7258    0.0715    8.8656 C.3     1  UNL1       -0.0287
     55 H           6.3606   -0.6585    9.3786 H       1  UNL1        0.0311
     56 H           4.8637    0.2508    9.5298 H       1  UNL1        0.0311
     57 C           5.2402   -0.5306    7.5541 C.3     1  UNL1       -0.0612
     58 H           4.6307    0.1813    7.0019 H       1  UNL1        0.0233
     59 H           4.6363   -1.4133    7.7559 H       1  UNL1        0.0233
     60 H           6.0758   -0.8334    6.9267 H       1  UNL1        0.0233
@<TRIPOS>BOND
     1    43    42    1
     2    45    44    1
     3    60    57    1
     4    58    57    1
     5    42    44   ar
     6    42    40   ar
     7    44    46   ar
     8    57    59    1
     9    57    54    1
    10    41    40    1
    11    40    39   ar
    12    46    54    1
    13    46    38   ar
    14    54    55    1
    15    54    56    1
    16    39    38   ar
    17    39    47    1
    18    38    14    1
    19    53    50    1
    20    10     9    1
    21    51    50    1
    22    36    34    1
    23    50    47    1
    24    50    52    1
    25    14     8    1
    26    47    48    1
    27    47    49    1
    28    12     9    1
    29     9     8    1
    30     9    11    1
    31    37    34    1
    32    32    31    1
    33    34    35    1
    34    34    31    1
    35     8     6    2
    36    31    33    1
    37    31    23    1
    38     6     7    1
    39     6     5    1
    40    13     5    1
    41    13    15    1
    42    23    15   ar
    43    23    21   ar
    44     5     1    1
    45    15    16   ar
    46    26    24    1
    47    22    21    1
    48    21    19   ar
    49    16    24    1
    50    16    17   ar
    51     4     1    1
    52     1     3    1
    53     1     2    1
    54    24    25    1
    55    24    27    1
    56    28    27    1
    57    19    17   ar
    58    19    20    1
    59    17    18    1
    60    29    27    1
    61    27    30    1
