@<TRIPOS>MOLECULE
4,5
 66 68 0 0 0
SMALL
GASTEIGER

@<TRIPOS>ATOM
      1 P           5.9849   15.2325   -0.1399 P.3     1  UNL1        0.0000
      2 SI          5.6122   11.5888    2.6652 Si      1  UNL1        0.0000
      3 SI          8.7283   17.6066    1.7257 Si      1  UNL1        0.0000
      4 N           6.6531   12.7533    1.9425 N.pl3   1  UNL1        0.0000
      5 N           8.2932   15.9598    1.5135 N.pl3   1  UNL1        0.0000
      6 C           5.6371   13.4737   -0.6745 C.3     1  UNL1        0.0000
      7 H           4.8226   13.1041   -0.0458 H       1  UNL1        0.0000
      8 H           5.3153   13.4749   -1.7204 H       1  UNL1        0.0000
      9 C           6.8414   12.6051   -0.4955 C.ar    1  UNL1        0.0000
     10 C           7.3379   12.3345    0.7937 C.ar    1  UNL1        0.0000
     11 C           8.4840   11.5417    0.8988 C.ar    1  UNL1        0.0000
     12 H           8.8754   11.3359    1.8823 H       1  UNL1        0.0000
     13 C           9.0952   11.0024   -0.2146 C.ar    1  UNL1        0.0000
     14 H           9.9743   10.3863   -0.0968 H       1  UNL1        0.0000
     15 C           8.5693   11.2301   -1.4739 C.ar    1  UNL1        0.0000
     16 H           9.0235   10.7880   -2.3474 H       1  UNL1        0.0000
     17 C           7.4565   12.0404   -1.6023 C.ar    1  UNL1        0.0000
     18 H           7.0446   12.2299   -2.5847 H       1  UNL1        0.0000
     19 C           3.8028   11.6558    2.0052 C.3     1  UNL1        0.0000
     20 H           3.3880   12.6592    2.0374 H       1  UNL1        0.0000
     21 H           3.1597   11.0246    2.6103 H       1  UNL1        0.0000
     22 H           3.7324   11.2936    0.9832 H       1  UNL1        0.0000
     23 C           5.4889   11.8331    4.5585 C.3     1  UNL1        0.0000
     24 H           6.4197   11.6156    5.0711 H       1  UNL1        0.0000
     25 H           4.7445   11.1481    4.9505 H       1  UNL1        0.0000
     26 H           5.1772   12.8357    4.8304 H       1  UNL1        0.0000
     27 C           6.1943    9.7937    2.3591 C.3     1  UNL1        0.0000
     28 H           6.3716    9.6215    1.3023 H       1  UNL1        0.0000
     29 H           5.4492    9.0787    2.6917 H       1  UNL1        0.0000
     30 H           7.1181    9.5713    2.8826 H       1  UNL1        0.0000
     31 C           7.4466   15.6083   -1.2196 C.3     1  UNL1        0.0000
     32 H           7.2487   15.2849   -2.2465 H       1  UNL1        0.0000
     33 H           7.5751   16.6939   -1.1986 H       1  UNL1        0.0000
     34 C           8.7010   14.9778   -0.6909 C.ar    1  UNL1        0.0000
     35 C           9.0623   15.1614    0.6566 C.ar    1  UNL1        0.0000
     36 C          10.2472   14.5765    1.1101 C.ar    1  UNL1        0.0000
     37 H          10.5388   14.7411    2.1356 H       1  UNL1        0.0000
     38 C          11.0607   13.8509    0.2626 C.ar    1  UNL1        0.0000
     39 H          11.9731   13.4156    0.6423 H       1  UNL1        0.0000
     40 C          10.7177   13.7053   -1.0697 C.ar    1  UNL1        0.0000
     41 H          11.3585   13.1602   -1.7457 H       1  UNL1        0.0000
     42 C           9.5416   14.2673   -1.5331 C.ar    1  UNL1        0.0000
     43 H           9.2733   14.1582   -2.5749 H       1  UNL1        0.0000
     44 C           7.8659   18.7923    0.4798 C.3     1  UNL1        0.0000
     45 H           8.3379   18.7717   -0.4990 H       1  UNL1        0.0000
     46 H           7.9166   19.8162    0.8358 H       1  UNL1        0.0000
     47 H           6.8149   18.5444    0.3585 H       1  UNL1        0.0000
     48 C          10.6097   17.8867    1.5315 C.3     1  UNL1        0.0000
     49 H          11.1691   17.3876    2.3161 H       1  UNL1        0.0000
     50 H          10.8596   18.9419    1.5651 H       1  UNL1        0.0000
     51 H          10.9604   17.4908    0.5833 H       1  UNL1        0.0000
     52 C           8.1634   18.1279    3.4692 C.3     1  UNL1        0.0000
     53 H           7.3041   17.5467    3.7931 H       1  UNL1        0.0000
     54 H           7.8710   19.1715    3.4770 H       1  UNL1        0.0000
     55 H           8.9523   18.0118    4.2036 H       1  UNL1        0.0000
     56 C           4.6318   16.0460   -1.0722 C.ar    1  UNL1        0.0000
     57 C           4.8240   17.1825   -1.8513 C.ar    1  UNL1        0.0000
     58 H           5.8132   17.5925   -1.9841 H       1  UNL1        0.0000
     59 C           3.7509   17.8032   -2.4666 C.ar    1  UNL1        0.0000
     60 H           3.9187   18.6802   -3.0746 H       1  UNL1        0.0000
     61 C           2.4682   17.3099   -2.3025 C.ar    1  UNL1        0.0000
     62 H           1.6330   17.7969   -2.7829 H       1  UNL1        0.0000
     63 C           2.2618   16.1926   -1.5098 C.ar    1  UNL1        0.0000
     64 H           1.2629   15.8072   -1.3673 H       1  UNL1        0.0000
     65 C           3.3321   15.5724   -0.8948 C.ar    1  UNL1        0.0000
     66 H           3.1578   14.7081   -0.2693 H       1  UNL1        0.0000
@<TRIPOS>BOND
     1    60    59    1
     2    62    61    1
     3    18    17    1
     4    43    42    1
     5    59    61   ar
     6    59    57   ar
     7    16    15    1
     8    61    63   ar
     9    32    31    1
    10    58    57    1
    11    57    56   ar
    12    41    40    1
    13     8     6    1
    14    17    15   ar
    15    17     9   ar
    16    42    40   ar
    17    42    34   ar
    18    63    64    1
    19    63    65   ar
    20    15    13   ar
    21    31    33    1
    22    31    34    1
    23    31     1    1
    24    56    65   ar
    25    56     1    1
    26    40    38   ar
    27    65    66    1
    28    34    35   ar
    29     6     9    1
    30     6     1    1
    31     6     7    1
    32    45    44    1
    33     9    10   ar
    34    13    14    1
    35    13    11   ar
    36    38    39    1
    37    38    36   ar
    38    47    44    1
    39    44    46    1
    40    44     3    1
    41    51    48    1
    42    35    36   ar
    43    35     5    1
    44    10    11   ar
    45    10     4    1
    46    11    12    1
    47    22    19    1
    48    36    37    1
    49    28    27    1
    50     5     3    1
    51    48    50    1
    52    48     3    1
    53    48    49    1
    54     3    52    1
    55     4     2    1
    56    19    20    1
    57    19    21    1
    58    19     2    1
    59    27     2    1
    60    27    29    1
    61    27    30    1
    62     2    23    1
    63    52    54    1
    64    52    53    1
    65    52    55    1
    66    23    26    1
    67    23    25    1
    68    23    24    1
