@<TRIPOS>MOLECULE
4,5
 66 68 0 0 0
SMALL
GASTEIGER

@<TRIPOS>ATOM
      1 P          -1.5118   11.6744    6.3905 P.3     1  UNL1        0.0000
      2 SI         -0.0957   15.5619    8.6764 Si      1  UNL1        0.0000
      3 SI          2.2395   10.4297    8.7102 Si      1  UNL1        0.0000
      4 N           0.0586   13.9926    7.9822 N.pl3   1  UNL1        0.0000
      5 N           0.5297   10.6000    8.5633 N.pl3   1  UNL1        0.0000
      6 C          -0.7246   13.0226    5.3870 C.3     1  UNL1        0.0000
      7 H          -0.8115   12.7764    4.3241 H       1  UNL1        0.0000
      8 H          -1.2704   13.9489    5.5940 H       1  UNL1        0.0000
      9 C           0.7085   13.2379    5.7580 C.ar    1  UNL1        0.0000
     10 C           1.0394   13.7882    7.0133 C.ar    1  UNL1        0.0000
     11 C           2.3693   14.1833    7.2020 C.ar    1  UNL1        0.0000
     12 H           2.6309   14.6829    8.1190 H       1  UNL1        0.0000
     13 C           3.3418   13.9557    6.2502 C.ar    1  UNL1        0.0000
     14 H           4.3586   14.2683    6.4393 H       1  UNL1        0.0000
     15 C           3.0191   13.3339    5.0563 C.ar    1  UNL1        0.0000
     16 H           3.7759   13.1402    4.3116 H       1  UNL1        0.0000
     17 C           1.6986   12.9988    4.8166 C.ar    1  UNL1        0.0000
     18 H           1.4231   12.5655    3.8640 H       1  UNL1        0.0000
     19 C           1.3356   16.2718    9.7570 C.3     1  UNL1        0.0000
     20 H           1.8137   15.5185   10.3778 H       1  UNL1        0.0000
     21 H           0.9609   17.0461   10.4204 H       1  UNL1        0.0000
     22 H           2.1073   16.7262    9.1426 H       1  UNL1        0.0000
     23 C          -0.3367   16.8494    7.2804 C.3     1  UNL1        0.0000
     24 H           0.4831   16.7974    6.5702 H       1  UNL1        0.0000
     25 H          -0.3694   17.8591    7.6748 H       1  UNL1        0.0000
     26 H          -1.2572   16.6806    6.7324 H       1  UNL1        0.0000
     27 C          -1.6364   15.4939    9.8064 C.3     1  UNL1        0.0000
     28 H          -2.1253   14.5197    9.7766 H       1  UNL1        0.0000
     29 H          -2.3654   16.2347    9.4985 H       1  UNL1        0.0000
     30 H          -1.3769   15.7149   10.8357 H       1  UNL1        0.0000
     31 C          -0.4080   10.2552    5.8916 C.3     1  UNL1        0.0000
     32 H          -0.6598    9.9048    4.8871 H       1  UNL1        0.0000
     33 H           0.6124   10.6492    5.9041 H       1  UNL1        0.0000
     34 C          -0.5431    9.1621    6.9068 C.ar    1  UNL1        0.0000
     35 C          -0.1421    9.4168    8.2333 C.ar    1  UNL1        0.0000
     36 C          -0.3383    8.4129    9.1855 C.ar    1  UNL1        0.0000
     37 H          -0.0294    8.6083   10.1997 H       1  UNL1        0.0000
     38 C          -0.8824    7.1919    8.8403 C.ar    1  UNL1        0.0000
     39 H          -1.0211    6.4336    9.5969 H       1  UNL1        0.0000
     40 C          -1.2261    6.9302    7.5244 C.ar    1  UNL1        0.0000
     41 H          -1.6200    5.9656    7.2409 H       1  UNL1        0.0000
     42 C          -1.0592    7.9193    6.5705 C.ar    1  UNL1        0.0000
     43 H          -1.3174    7.7157    5.5392 H       1  UNL1        0.0000
     44 C           3.0833   10.1354    7.0088 C.3     1  UNL1        0.0000
     45 H           2.6664    9.2662    6.5079 H       1  UNL1        0.0000
     46 H           4.1460    9.9553    7.1359 H       1  UNL1        0.0000
     47 H           2.9788   10.9899    6.3463 H       1  UNL1        0.0000
     48 C           2.9019   12.0509    9.4600 C.3     1  UNL1        0.0000
     49 H           2.1200   12.8046    9.5498 H       1  UNL1        0.0000
     50 H           3.6942   12.4546    8.8410 H       1  UNL1        0.0000
     51 H           3.3178   11.8713   10.4441 H       1  UNL1        0.0000
     52 C           2.8164    8.9714    9.8074 C.3     1  UNL1        0.0000
     53 H           2.4745    9.0747   10.8322 H       1  UNL1        0.0000
     54 H           3.9001    8.9133    9.8281 H       1  UNL1        0.0000
     55 H           2.4446    8.0254    9.4266 H       1  UNL1        0.0000
     56 C          -2.9836   11.3325    5.3468 C.ar    1  UNL1        0.0000
     57 C          -3.6284   12.3282    4.6177 C.ar    1  UNL1        0.0000
     58 H          -3.2387   13.3343    4.5962 H       1  UNL1        0.0000
     59 C          -4.7767   12.0425    3.9008 C.ar    1  UNL1        0.0000
     60 H          -5.2616   12.8254    3.3362 H       1  UNL1        0.0000
     61 C          -5.3061   10.7635    3.9065 C.ar    1  UNL1        0.0000
     62 H          -6.2033   10.5442    3.3474 H       1  UNL1        0.0000
     63 C          -4.6790    9.7687    4.6384 C.ar    1  UNL1        0.0000
     64 H          -5.0864    8.7682    4.6530 H       1  UNL1        0.0000
     65 C          -3.5335   10.0525    5.3582 C.ar    1  UNL1        0.0000
     66 H          -3.0566    9.2740    5.9331 H       1  UNL1        0.0000
@<TRIPOS>BOND
     1    60    59    1
     2    62    61    1
     3    18    17    1
     4    59    61   ar
     5    59    57   ar
     6    61    63   ar
     7    16    15    1
     8     7     6    1
     9    58    57    1
    10    57    56   ar
    11    63    64    1
    12    63    65   ar
    13    17    15   ar
    14    17     9   ar
    15    32    31    1
    16    15    13   ar
    17    56    65   ar
    18    56     1    1
    19    65    66    1
    20     6     8    1
    21     6     9    1
    22     6     1    1
    23    43    42    1
    24     9    10   ar
    25    31    33    1
    26    31     1    1
    27    31    34    1
    28    13    14    1
    29    13    11   ar
    30    47    44    1
    31    45    44    1
    32    24    23    1
    33    42    34   ar
    34    42    40   ar
    35    26    23    1
    36    34    35   ar
    37    44    46    1
    38    44     3    1
    39    10    11   ar
    40    10     4    1
    41    11    12    1
    42    41    40    1
    43    23    25    1
    44    23     2    1
    45    40    38   ar
    46     4     2    1
    47    35     5    1
    48    35    36   ar
    49     5     3    1
    50     2    19    1
    51     2    27    1
    52     3    48    1
    53     3    52    1
    54    38    36   ar
    55    38    39    1
    56    50    48    1
    57    22    19    1
    58    36    37    1
    59    55    52    1
    60    48    49    1
    61    48    51    1
    62    29    27    1
    63    19    20    1
    64    19    21    1
    65    28    27    1
    66    27    30    1
    67    52    54    1
    68    52    53    1
