@<TRIPOS>MOLECULE
1,2
 39 38 0 0 0
SMALL
GASTEIGER

@<TRIPOS>ATOM
      1 N           3.0411    4.8516    3.1421 N.3     1  UNL1        0.0000
      2 N           3.0694    4.9146    5.3626 N.3     1  UNL1        0.0000
      3 SI          5.8105    6.8844    3.7725 Si      1  UNL1        0.0000
      4 C           3.9238    6.9401    4.1623 C.3     1  UNL1        0.0000
      5 H           3.7734    7.4541    5.1087 H       1  UNL1        0.0000
      6 H           3.4002    7.5248    3.4060 H       1  UNL1        0.0000
      7 C           6.1828    7.5035    2.0000 C.3     1  UNL1        0.0000
      8 H           7.2354    7.7551    1.9084 H       1  UNL1        0.0000
      9 H           5.6159    8.3996    1.7620 H       1  UNL1        0.0000
     10 H           5.9596    6.7619    1.2401 H       1  UNL1        0.0000
     11 C           6.4984    5.1170    4.0064 C.3     1  UNL1        0.0000
     12 H           7.1692    4.8391    3.1979 H       1  UNL1        0.0000
     13 H           5.6844    4.3939    4.0300 H       1  UNL1        0.0000
     14 H           7.0531    5.0154    4.9352 H       1  UNL1        0.0000
     15 C           6.6974    8.1163    4.9377 C.3     1  UNL1        0.0000
     16 H           7.7699    8.0865    4.7733 H       1  UNL1        0.0000
     17 H           6.5236    7.9090    5.9887 H       1  UNL1        0.0000
     18 H           6.3697    9.1342    4.7489 H       1  UNL1        0.0000
     19 C           3.3241    5.5585    4.2308 C.3     1  UNL1        0.0000
     20 C           3.2222    5.3634    1.7998 C.3     1  UNL1        0.0000
     21 H           3.7015    6.3491    1.7835 H       1  UNL1        0.0000
     22 C           1.8453    5.4939    1.1350 C.3     1  UNL1        0.0000
     23 H           1.3147    4.5435    1.2187 H       1  UNL1        0.0000
     24 H           1.9421    5.7675    0.0863 H       1  UNL1        0.0000
     25 H           1.2500    6.2510    1.6413 H       1  UNL1        0.0000
     26 C           4.1074    4.3837    1.0240 C.3     1  UNL1        0.0000
     27 H           5.1291    4.4260    1.3944 H       1  UNL1        0.0000
     28 H           4.1087    4.6142   -0.0399 H       1  UNL1        0.0000
     29 H           3.7248    3.3757    1.1832 H       1  UNL1        0.0000
     30 C           3.1765    5.5792    6.6491 C.3     1  UNL1        0.0000
     31 H           2.7952    6.6117    6.5768 H       1  UNL1        0.0000
     32 C           2.2928    4.8394    7.6541 C.3     1  UNL1        0.0000
     33 H           1.2645    4.8070    7.3009 H       1  UNL1        0.0000
     34 H           2.3234    5.3367    8.6216 H       1  UNL1        0.0000
     35 H           2.6504    3.8191    7.7714 H       1  UNL1        0.0000
     36 C           4.6085    5.6502    7.2040 C.3     1  UNL1        0.0000
     37 H           4.9448    4.6680    7.5246 H       1  UNL1        0.0000
     38 H           4.6372    6.3185    8.0632 H       1  UNL1        0.0000
     39 H           5.2954    6.0185    6.4499 H       1  UNL1        0.0000
@<TRIPOS>BOND
     1    28    26    1
     2    24    22    1
     3    26    29    1
     4    26    27    1
     5    26    20    1
     6    22    23    1
     7    22    25    1
     8    22    20    1
     9    10     7    1
    10     9     7    1
    11    21    20    1
    12    20     1    1
    13     8     7    1
    14     7     3    1
    15     1    19    1
    16    12    11    1
    17     6     4    1
    18     3    11    1
    19     3     4    1
    20     3    15    1
    21    11    13    1
    22    11    14    1
    23     4    19    1
    24     4     5    1
    25    19     2    1
    26    18    15    1
    27    16    15    1
    28    15    17    1
    29     2    30    1
    30    39    36    1
    31    31    30    1
    32    30    36    1
    33    30    32    1
    34    36    37    1
    35    36    38    1
    36    33    32    1
    37    32    35    1
    38    32    34    1
