@<TRIPOS>MOLECULE
1,2
 39 38 0 0 0
SMALL
GASTEIGER

@<TRIPOS>ATOM
      1 N           2.6799    1.3094    2.6108 N.3     1  UNL1        0.0000
      2 N           3.4425    1.3961    4.6963 N.3     1  UNL1        0.0000
      3 SI          5.9845   -0.3401    3.0722 Si      1  UNL1        0.0000
      4 C           4.0998   -0.6058    3.3771 C.3     1  UNL1        0.0000
      5 H           3.6767   -1.1436    2.5321 H       1  UNL1        0.0000
      6 H           3.9435   -1.2344    4.2537 H       1  UNL1        0.0000
      7 C           7.0294   -0.9066    4.5722 C.3     1  UNL1        0.0000
      8 H           8.0697   -1.0145    4.2793 H       1  UNL1        0.0000
      9 H           6.6993   -1.8714    4.9478 H       1  UNL1        0.0000
     10 H           6.9967   -0.2039    5.3981 H       1  UNL1        0.0000
     11 C           6.5187   -1.4701    1.6234 C.3     1  UNL1        0.0000
     12 H           5.9607   -1.2848    0.7112 H       1  UNL1        0.0000
     13 H           6.3861   -2.5173    1.8782 H       1  UNL1        0.0000
     14 H           7.5700   -1.3233    1.3972 H       1  UNL1        0.0000
     15 C           6.3557    1.4913    2.6723 C.3     1  UNL1        0.0000
     16 H           5.5304    2.1251    2.9951 H       1  UNL1        0.0000
     17 H           6.4954    1.6548    1.6072 H       1  UNL1        0.0000
     18 H           7.2571    1.8349    3.1726 H       1  UNL1        0.0000
     19 C           3.3816    0.7065    3.5623 C.3     1  UNL1        0.0000
     20 C           2.3717    0.6355    1.3620 C.3     1  UNL1        0.0000
     21 H           2.1486   -0.4283    1.5496 H       1  UNL1        0.0000
     22 C           1.1118    1.2646    0.7661 C.3     1  UNL1        0.0000
     23 H           0.2814    1.1853    1.4638 H       1  UNL1        0.0000
     24 H           0.8455    0.7667   -0.1642 H       1  UNL1        0.0000
     25 H           1.2935    2.3175    0.5634 H       1  UNL1        0.0000
     26 C           3.4988    0.6981    0.3177 C.3     1  UNL1        0.0000
     27 H           3.5682    1.6942   -0.1111 H       1  UNL1        0.0000
     28 H           3.2951   -0.0062   -0.4873 H       1  UNL1        0.0000
     29 H           4.4540    0.4501    0.7679 H       1  UNL1        0.0000
     30 C           4.1256    0.9149    5.8787 C.3     1  UNL1        0.0000
     31 H           4.6624   -0.0253    5.7053 H       1  UNL1        0.0000
     32 C           3.0841    0.6707    6.9794 C.3     1  UNL1        0.0000
     33 H           2.4808    1.5709    7.1109 H       1  UNL1        0.0000
     34 H           3.5642    0.4119    7.9210 H       1  UNL1        0.0000
     35 H           2.4139   -0.1376    6.6943 H       1  UNL1        0.0000
     36 C           5.1387    1.9756    6.3189 C.3     1  UNL1        0.0000
     37 H           5.9697    2.0171    5.6184 H       1  UNL1        0.0000
     38 H           5.5266    1.7588    7.3128 H       1  UNL1        0.0000
     39 H           4.6407    2.9450    6.3197 H       1  UNL1        0.0000
@<TRIPOS>BOND
     1    28    26    1
     2    24    22    1
     3    27    26    1
     4    26    29    1
     5    26    20    1
     6    25    22    1
     7    12    11    1
     8    22    20    1
     9    22    23    1
    10    20    21    1
    11    20     1    1
    12    14    11    1
    13    17    15    1
    14    11    13    1
    15    11     3    1
    16     5     4    1
    17     1    19    1
    18    15    16    1
    19    15     3    1
    20    15    18    1
    21     3     4    1
    22     3     7    1
    23     4    19    1
    24     4     6    1
    25    19     2    1
    26     8     7    1
    27     7     9    1
    28     7    10    1
    29     2    30    1
    30    37    36    1
    31    31    30    1
    32    30    36    1
    33    30    32    1
    34    36    39    1
    35    36    38    1
    36    35    32    1
    37    32    33    1
    38    32    34    1
