@<TRIPOS>MOLECULE
1,2
 50 51 0 0 0
SMALL
GASTEIGER

@<TRIPOS>ATOM
      1 N           0.8385    8.4064   10.0879 N.3     1  UNL1       -0.2058
      2 N           0.6846    7.3787   12.0076 N.3     1  UNL1       -0.2058
      3 C           0.0157    7.7816   10.9209 C.3     1  UNL1        0.1420
      4 C          -1.5060    7.5578   10.7599 C.3     1  UNL1       -0.0003
      5 C          -2.1796    8.2942    9.5921 C.3     1  UNL1       -0.0569
      6 H          -3.2388    8.0372    9.5977 H       1  UNL1        0.0236
      7 H          -1.7756    7.9991    8.6302 H       1  UNL1        0.0236
      8 H          -2.1098    9.3721    9.7050 H       1  UNL1        0.0236
      9 C          -2.2436    8.0816   12.0078 C.3     1  UNL1       -0.0569
     10 H          -2.1418    9.1638   12.0586 H       1  UNL1        0.0236
     11 H          -1.8845    7.6763   12.9454 H       1  UNL1        0.0236
     12 H          -3.3033    7.8448   11.9232 H       1  UNL1        0.0236
     13 C          -1.7835    6.0649   10.5114 C.3     1  UNL1       -0.0569
     14 H          -1.4358    5.4226   11.3115 H       1  UNL1        0.0236
     15 H          -1.2983    5.7550    9.5875 H       1  UNL1        0.0236
     16 H          -2.8555    5.9087   10.3986 H       1  UNL1        0.0236
     17 C           0.5616    9.1391    8.8702 C.3     1  UNL1        0.0497
     18 H          -0.2783    9.8356    8.9923 H       1  UNL1        0.0524
     19 C           1.8035    9.9939    8.5631 C.3     1  UNL1       -0.0440
     20 H           1.9928   10.6820    9.3879 H       1  UNL1        0.0248
     21 H           1.6547   10.5649    7.6484 H       1  UNL1        0.0248
     22 H           2.6663    9.3394    8.4290 H       1  UNL1        0.0248
     23 C           0.2950    8.2561    7.6640 C.ar    1  UNL1       -0.0291
     24 C          -0.1950    8.8179    6.4896 C.ar    1  UNL1       -0.0570
     25 H          -0.4104    9.8766    6.4532 H       1  UNL1        0.0621
     26 C          -0.4246    8.0335    5.3746 C.ar    1  UNL1       -0.0615
     27 H          -0.8063    8.4839    4.4697 H       1  UNL1        0.0618
     28 C          -0.1752    6.6717    5.4180 C.ar    1  UNL1       -0.0617
     29 H          -0.3630    6.0577    4.5493 H       1  UNL1        0.0618
     30 C           0.3109    6.1040    6.5821 C.ar    1  UNL1       -0.0615
     31 H           0.5022    5.0409    6.6250 H       1  UNL1        0.0618
     32 C           0.5518    6.8938    7.6923 C.ar    1  UNL1       -0.0570
     33 H           0.9332    6.4603    8.6042 H       1  UNL1        0.0621
     34 C           0.3074    6.3844   12.9960 C.3     1  UNL1        0.0497
     35 H          -0.7688    6.1649   13.0156 H       1  UNL1        0.0524
     36 C           1.0256    5.0702   12.6510 C.3     1  UNL1       -0.0440
     37 H           0.7680    4.7762   11.6357 H       1  UNL1        0.0248
     38 H           0.7316    4.2663   13.3216 H       1  UNL1        0.0248
     39 H           2.1026    5.2210   12.7019 H       1  UNL1        0.0248
     40 C           0.6583    6.9038   14.3824 C.ar    1  UNL1       -0.0291
     41 C           1.0838    6.0725   15.4123 C.ar    1  UNL1       -0.0570
     42 H           1.2108    5.0150   15.2480 H       1  UNL1        0.0621
     43 C           1.3465    6.5787   16.6735 C.ar    1  UNL1       -0.0615
     44 H           1.6912    5.9142   17.4521 H       1  UNL1        0.0618
     45 C           1.1660    7.9237   16.9401 C.ar    1  UNL1       -0.0617
     46 H           1.3635    8.3152   17.9268 H       1  UNL1        0.0618
     47 C           0.7222    8.7600   15.9304 C.ar    1  UNL1       -0.0615
     48 H           0.5608    9.8098   16.1270 H       1  UNL1        0.0618
     49 C           0.4816    8.2570   14.6628 C.ar    1  UNL1       -0.0570
     50 H           0.1282    8.9223   13.8885 H       1  UNL1        0.0621
@<TRIPOS>BOND
     1    27    26    1
     2    29    28    1
     3    26    28   ar
     4    26    24   ar
     5    28    30   ar
     6    25    24    1
     7    24    23   ar
     8    30    31    1
     9    30    32   ar
    10    21    19    1
    11    23    32   ar
    12    23    17    1
    13    32    33    1
    14    22    19    1
    15    19    17    1
    16    19    20    1
    17     7     5    1
    18    17    18    1
    19    17     1    1
    20    15    13    1
    21     5     6    1
    22     5     8    1
    23     5     4    1
    24     1     3    1
    25    16    13    1
    26    13     4    1
    27    13    14    1
    28     4     3    1
    29     4     9    1
    30     3     2    1
    31    37    36    1
    32    12     9    1
    33     2    34    1
    34     9    10    1
    35     9    11    1
    36    36    39    1
    37    36    34    1
    38    36    38    1
    39    34    35    1
    40    34    40    1
    41    50    49    1
    42    40    49   ar
    43    40    41   ar
    44    49    47   ar
    45    42    41    1
    46    41    43   ar
    47    47    48    1
    48    47    45   ar
    49    43    45   ar
    50    43    44    1
    51    45    46    1
