@<TRIPOS>MOLECULE
1,2
 50 51 0 0 0
SMALL
GASTEIGER

@<TRIPOS>ATOM
      1 N           4.3767    6.8471   10.8348 N.3     1  UNL1       -0.2058
      2 N           4.5273    7.5161   12.9073 N.3     1  UNL1       -0.2058
      3 C           5.1145    6.8084   11.9503 C.3     1  UNL1        0.1420
      4 C           6.4685    6.0644   12.0165 C.3     1  UNL1       -0.0003
      5 C           6.2195    4.5461   12.0008 C.3     1  UNL1       -0.0569
      6 H           5.6326    4.2668   12.8740 H       1  UNL1        0.0236
      7 H           7.1724    4.0211   12.0518 H       1  UNL1        0.0236
      8 H           5.6975    4.2039   11.1153 H       1  UNL1        0.0236
      9 C           7.3235    6.3217   13.2665 C.3     1  UNL1       -0.0569
     10 H           7.6198    7.3638   13.3414 H       1  UNL1        0.0236
     11 H           8.2361    5.7324   13.1775 H       1  UNL1        0.0236
     12 H           6.8232    6.0157   14.1784 H       1  UNL1        0.0236
     13 C           7.3687    6.5150   10.8492 C.3     1  UNL1       -0.0569
     14 H           6.9174    6.4189    9.8698 H       1  UNL1        0.0236
     15 H           8.2851    5.9264   10.8560 H       1  UNL1        0.0236
     16 H           7.6374    7.5607   10.9850 H       1  UNL1        0.0236
     17 C           4.4250    5.9729    9.6766 C.3     1  UNL1        0.0497
     18 H           5.3624    5.4075    9.5865 H       1  UNL1        0.0524
     19 C           3.2930    4.9423    9.8099 C.3     1  UNL1       -0.0440
     20 H           3.4073    4.4038   10.7484 H       1  UNL1        0.0248
     21 H           3.3137    4.2183    8.9989 H       1  UNL1        0.0248
     22 H           2.3340    5.4572    9.8240 H       1  UNL1        0.0248
     23 C           4.3146    6.8142    8.4136 C.ar    1  UNL1       -0.0291
     24 C           4.9495    8.0535    8.3689 C.ar    1  UNL1       -0.0570
     25 H           5.4838    8.4125    9.2364 H       1  UNL1        0.0621
     26 C           4.9325    8.8225    7.2175 C.ar    1  UNL1       -0.0615
     27 H           5.4463    9.7726    7.2030 H       1  UNL1        0.0618
     28 C           4.2614    8.3777    6.0916 C.ar    1  UNL1       -0.0617
     29 H           4.2382    8.9799    5.1956 H       1  UNL1        0.0618
     30 C           3.6270    7.1493    6.1239 C.ar    1  UNL1       -0.0615
     31 H           3.1005    6.7889    5.2524 H       1  UNL1        0.0618
     32 C           3.6636    6.3711    7.2681 C.ar    1  UNL1       -0.0570
     33 H           3.1798    5.4083    7.2487 H       1  UNL1        0.0621
     34 C           5.0057    7.8903   14.2218 C.3     1  UNL1        0.0497
     35 H           6.0315    8.2805   14.1890 H       1  UNL1        0.0524
     36 C           4.1117    9.0381   14.7221 C.3     1  UNL1       -0.0440
     37 H           4.1709    9.8816   14.0331 H       1  UNL1        0.0248
     38 H           4.4296    9.3619   15.7116 H       1  UNL1        0.0248
     39 H           3.0795    8.6895   14.7844 H       1  UNL1        0.0248
     40 C           4.9370    6.7720   15.2460 C.ar    1  UNL1       -0.0291
     41 C           4.2165    5.6124   15.0035 C.ar    1  UNL1       -0.0570
     42 H           3.7146    5.5069   14.0537 H       1  UNL1        0.0621
     43 C           4.1531    4.6070   15.9519 C.ar    1  UNL1       -0.0615
     44 H           3.5991    3.7028   15.7427 H       1  UNL1        0.0618
     45 C           4.7979    4.7560   17.1668 C.ar    1  UNL1       -0.0617
     46 H           4.7493    3.9726   17.9089 H       1  UNL1        0.0618
     47 C           5.5110    5.9152   17.4242 C.ar    1  UNL1       -0.0615
     48 H           6.0191    6.0380   18.3698 H       1  UNL1        0.0618
     49 C           5.5822    6.9132   16.4702 C.ar    1  UNL1       -0.0570
     50 H           6.1558    7.8071   16.6714 H       1  UNL1        0.0621
@<TRIPOS>BOND
     1    29    28    1
     2    31    30    1
     3    28    30   ar
     4    28    26   ar
     5    30    32   ar
     6    27    26    1
     7    26    24   ar
     8    33    32    1
     9    32    23   ar
    10    24    23   ar
    11    24    25    1
    12    23    17    1
    13    21    19    1
    14    18    17    1
    15    17    19    1
    16    17     1    1
    17    19    22    1
    18    19    20    1
    19    14    13    1
    20     1     3    1
    21    13    15    1
    22    13    16    1
    23    13     4    1
    24     8     5    1
    25     3     4    1
    26     3     2    1
    27     5     4    1
    28     5     7    1
    29     5     6    1
    30     4     9    1
    31     2    34    1
    32    11     9    1
    33     9    10    1
    34     9    12    1
    35    37    36    1
    36    42    41    1
    37    35    34    1
    38    34    36    1
    39    34    40    1
    40    36    39    1
    41    36    38    1
    42    41    40   ar
    43    41    43   ar
    44    40    49   ar
    45    44    43    1
    46    43    45   ar
    47    49    50    1
    48    49    47   ar
    49    45    47   ar
    50    45    46    1
    51    47    48    1
