@<TRIPOS>MOLECULE
1,2
 40 40 0 0 0
SMALL
GASTEIGER

@<TRIPOS>ATOM
      1 N           8.8064    2.3095    3.0215 N.3     1  UNL1        0.0000
      2 N           8.7611    3.4942    4.8825 N.3     1  UNL1        0.0000
      3 C           8.1097    3.0954    3.8123 C.3     1  UNL1        0.0000
      4 C           6.6977    3.4612    3.5687 C.ar    1  UNL1        0.0000
      5 C           6.3567    4.5196    2.7373 C.ar    1  UNL1        0.0000
      6 C           5.0246    4.8446    2.5490 C.ar    1  UNL1        0.0000
      7 C           4.0335    4.1143    3.1837 C.ar    1  UNL1        0.0000
      8 C           4.3739    3.0556    4.0102 C.ar    1  UNL1        0.0000
      9 C           5.7037    2.7278    4.2066 C.ar    1  UNL1        0.0000
     10 SI          8.3077    1.3045    1.6889 Si      1  UNL1        0.0000
     11 C           8.0794   -0.4715    2.3600 C.3     1  UNL1        0.0000
     12 C           9.7285    1.4038    0.4130 C.3     1  UNL1        0.0000
     13 C           6.6918    1.8575    0.8252 C.3     1  UNL1        0.0000
     14 SI          8.2095    4.4496    6.2179 Si      1  UNL1        0.0000
     15 C           9.8282    5.1064    6.9915 C.3     1  UNL1        0.0000
     16 C           7.2300    3.3498    7.4411 C.3     1  UNL1        0.0000
     17 C           7.1425    5.9464    5.6812 C.3     1  UNL1        0.0000
     18 H           7.1351    5.0845    2.2458 H       1  UNL1        0.0000
     19 H           4.7584    5.6691    1.9041 H       1  UNL1        0.0000
     20 H           2.9950    4.3693    3.0326 H       1  UNL1        0.0000
     21 H           3.6009    2.4834    4.5016 H       1  UNL1        0.0000
     22 H           5.9867    1.9015    4.8438 H       1  UNL1        0.0000
     23 H           9.0152   -0.8410    2.7769 H       1  UNL1        0.0000
     24 H           7.7705   -1.1578    1.5776 H       1  UNL1        0.0000
     25 H           7.3348   -0.5093    3.1529 H       1  UNL1        0.0000
     26 H           9.5035    0.7839   -0.4491 H       1  UNL1        0.0000
     27 H          10.6566    1.0429    0.8472 H       1  UNL1        0.0000
     28 H           9.8976    2.4164    0.0560 H       1  UNL1        0.0000
     29 H           6.7397    2.8880    0.4894 H       1  UNL1        0.0000
     30 H           5.8229    1.7605    1.4673 H       1  UNL1        0.0000
     31 H           6.5258    1.2366   -0.0485 H       1  UNL1        0.0000
     32 H           9.6365    5.6835    7.8903 H       1  UNL1        0.0000
     33 H          10.3634    5.7444    6.2921 H       1  UNL1        0.0000
     34 H          10.4826    4.2779    7.2510 H       1  UNL1        0.0000
     35 H           7.3673    3.6707    8.4688 H       1  UNL1        0.0000
     36 H           7.5592    2.3152    7.3670 H       1  UNL1        0.0000
     37 H           6.1641    3.3732    7.2309 H       1  UNL1        0.0000
     38 H           6.1435    5.6469    5.3819 H       1  UNL1        0.0000
     39 H           7.5877    6.4843    4.8496 H       1  UNL1        0.0000
     40 H           7.0423    6.6433    6.5065 H       1  UNL1        0.0000
@<TRIPOS>BOND
     1    26    12    1
     2    31    13    1
     3    28    12    1
     4    12    27    1
     5    12    10    1
     6    29    13    1
     7    13    30    1
     8    13    10    1
     9    24    11    1
    10    10    11    1
    11    10     1    1
    12    19     6    1
    13    18     5    1
    14    11    23    1
    15    11    25    1
    16     6     5   ar
    17     6     7   ar
    18     5     4   ar
    19     1     3    1
    20    20     7    1
    21     7     8   ar
    22     4     3    1
    23     4     9   ar
    24     3     2    1
    25     8     9   ar
    26     8    21    1
    27     9    22    1
    28    39    17    1
    29     2    14    1
    30    38    17    1
    31    17    14    1
    32    17    40    1
    33    14    15    1
    34    14    16    1
    35    33    15    1
    36    15    34    1
    37    15    32    1
    38    37    16    1
    39    36    16    1
    40    16    35    1
