@<TRIPOS>MOLECULE
1,2
 40 40 0 0 0
SMALL
GASTEIGER

@<TRIPOS>ATOM
      1 N          11.4132    2.3094    5.9878 N.3     1  UNL1        0.0000
      2 N          11.4585    3.4938    4.1267 N.3     1  UNL1        0.0000
      3 C          12.1099    3.0951    5.1969 C.3     1  UNL1        0.0000
      4 SI         11.9120    1.3045    7.3205 Si      1  UNL1        0.0000
      5 SI         12.0101    4.4494    2.7914 Si      1  UNL1        0.0000
      6 C          13.5219    3.4611    5.4406 C.ar    1  UNL1        0.0000
      7 C          12.1404   -0.4715    6.6494 C.3     1  UNL1        0.0000
      8 C          10.4912    1.4036    8.5964 C.3     1  UNL1        0.0000
      9 C          13.5279    1.8574    8.1841 C.3     1  UNL1        0.0000
     10 C          10.3915    5.1062    2.0177 C.3     1  UNL1        0.0000
     11 C          12.9897    3.3497    1.5683 C.3     1  UNL1        0.0000
     12 C          13.0771    5.9462    3.3282 C.3     1  UNL1        0.0000
     13 C          13.8629    4.5195    6.2719 C.ar    1  UNL1        0.0000
     14 C          14.5159    2.7277    4.8027 C.ar    1  UNL1        0.0000
     15 H          11.2045   -0.8411    6.2328 H       1  UNL1        0.0000
     16 H          12.4496   -1.1578    7.4317 H       1  UNL1        0.0000
     17 H          12.8847   -0.5093    5.8563 H       1  UNL1        0.0000
     18 H          10.7162    0.7838    9.4586 H       1  UNL1        0.0000
     19 H           9.5631    1.0427    8.1622 H       1  UNL1        0.0000
     20 H          10.3221    2.4163    8.9533 H       1  UNL1        0.0000
     21 H          13.4800    2.8880    8.5198 H       1  UNL1        0.0000
     22 H          14.3968    1.7605    7.5420 H       1  UNL1        0.0000
     23 H          13.6939    1.2367    9.0579 H       1  UNL1        0.0000
     24 H          10.5832    5.6834    1.1189 H       1  UNL1        0.0000
     25 H           9.8562    5.7443    2.7172 H       1  UNL1        0.0000
     26 H           9.7371    4.2778    1.7583 H       1  UNL1        0.0000
     27 H          12.8524    3.6707    0.5405 H       1  UNL1        0.0000
     28 H          12.6605    2.3152    1.6422 H       1  UNL1        0.0000
     29 H          14.0556    3.3730    1.7785 H       1  UNL1        0.0000
     30 H          14.0762    5.6467    3.6275 H       1  UNL1        0.0000
     31 H          12.6320    6.4841    4.1598 H       1  UNL1        0.0000
     32 H          13.1774    6.6433    2.5029 H       1  UNL1        0.0000
     33 C          15.1950    4.8445    6.4602 C.ar    1  UNL1        0.0000
     34 H          13.0845    5.0844    6.7635 H       1  UNL1        0.0000
     35 C          15.8458    3.0555    4.9991 C.ar    1  UNL1        0.0000
     36 H          14.2330    1.9014    4.1655 H       1  UNL1        0.0000
     37 C          16.1860    4.1143    5.8255 C.ar    1  UNL1        0.0000
     38 H          15.4612    5.6690    7.1052 H       1  UNL1        0.0000
     39 H          16.6187    2.4834    4.5076 H       1  UNL1        0.0000
     40 H          17.2245    4.3693    5.9766 H       1  UNL1        0.0000
@<TRIPOS>BOND
     1    27    11    1
     2    24    10    1
     3    11    28    1
     4    11    29    1
     5    11     5    1
     6    26    10    1
     7    10    25    1
     8    10     5    1
     9    32    12    1
    10     5    12    1
    11     5     2    1
    12    12    30    1
    13    12    31    1
    14     2     3    1
    15    36    14    1
    16    39    35    1
    17    14    35   ar
    18    14     6   ar
    19    35    37   ar
    20     3     6    1
    21     3     1    1
    22     6    13   ar
    23    37    40    1
    24    37    33   ar
    25    17     7    1
    26     1     4    1
    27    15     7    1
    28    13    33   ar
    29    13    34    1
    30    33    38    1
    31     7     4    1
    32     7    16    1
    33     4     9    1
    34     4     8    1
    35    22     9    1
    36    19     8    1
    37     9    21    1
    38     9    23    1
    39     8    20    1
    40     8    18    1
