@<TRIPOS>MOLECULE
1,2
 40 40 0 0 0
SMALL
GASTEIGER

@<TRIPOS>ATOM
      1 N           3.3692    0.8643    2.3871 N.3     1  UNL1        0.0000
      2 N           3.9400   -0.2755    4.1866 N.3     1  UNL1        0.0000
      3 C           3.0932   -0.1260    3.1834 C.3     1  UNL1        0.0000
      4 C           1.8977   -0.9863    3.0313 C.ar    1  UNL1        0.0000
      5 C           1.9509   -2.1900    2.3412 C.ar    1  UNL1        0.0000
      6 C           0.8089   -2.9614    2.2106 C.ar    1  UNL1        0.0000
      7 C          -0.3855   -2.5371    2.7687 C.ar    1  UNL1        0.0000
      8 C          -0.4393   -1.3369    3.4591 C.ar    1  UNL1        0.0000
      9 C           0.6983   -0.5604    3.5904 C.ar    1  UNL1        0.0000
     10 SI          2.4023    1.5101    1.1026 Si      1  UNL1        0.0000
     11 C           1.0767    2.6609    1.8631 C.3     1  UNL1        0.0000
     12 C           3.6184    2.4826   -0.0041 C.3     1  UNL1        0.0000
     13 C           1.5606    0.1784    0.0115 C.3     1  UNL1        0.0000
     14 SI          3.7279   -1.1904    5.6614 Si      1  UNL1        0.0000
     15 C           5.4858   -1.2874    6.3872 C.3     1  UNL1        0.0000
     16 C           3.0381   -2.9519    5.3634 C.3     1  UNL1        0.0000
     17 C           2.5518   -0.1708    6.7772 C.3     1  UNL1        0.0000
     18 H           2.8849   -2.5168    1.9096 H       1  UNL1        0.0000
     19 H           0.8504   -3.8969    1.6724 H       1  UNL1        0.0000
     20 H          -1.2746   -3.1416    2.6659 H       1  UNL1        0.0000
     21 H          -1.3707   -1.0065    3.8952 H       1  UNL1        0.0000
     22 H           0.6746    0.3787    4.1239 H       1  UNL1        0.0000
     23 H           0.8983    3.5423    1.2551 H       1  UNL1        0.0000
     24 H           1.4151    2.9911    2.8426 H       1  UNL1        0.0000
     25 H           0.1246    2.1532    1.9917 H       1  UNL1        0.0000
     26 H           3.1017    2.9627   -0.8294 H       1  UNL1        0.0000
     27 H           4.3763    1.8266   -0.4244 H       1  UNL1        0.0000
     28 H           4.1258    3.2513    0.5716 H       1  UNL1        0.0000
     29 H           0.7158   -0.2870    0.5090 H       1  UNL1        0.0000
     30 H           2.2514   -0.6110   -0.2687 H       1  UNL1        0.0000
     31 H           1.1929    0.6308   -0.9037 H       1  UNL1        0.0000
     32 H           5.9260   -0.2929    6.3387 H       1  UNL1        0.0000
     33 H           6.1271   -1.9669    5.8333 H       1  UNL1        0.0000
     34 H           5.4800   -1.6076    7.4238 H       1  UNL1        0.0000
     35 H           3.5567   -3.4657    4.5605 H       1  UNL1        0.0000
     36 H           1.9804   -2.9473    5.1227 H       1  UNL1        0.0000
     37 H           3.1659   -3.5417    6.2644 H       1  UNL1        0.0000
     38 H           2.6817    0.8844    6.5238 H       1  UNL1        0.0000
     39 H           2.7773   -0.2906    7.8320 H       1  UNL1        0.0000
     40 H           1.5062   -0.4309    6.6324 H       1  UNL1        0.0000
@<TRIPOS>BOND
     1    31    13    1
     2    26    12    1
     3    27    12    1
     4    30    13    1
     5    12    28    1
     6    12    10    1
     7    13    29    1
     8    13    10    1
     9    10    11    1
    10    10     1    1
    11    23    11    1
    12    19     6    1
    13    11    25    1
    14    11    24    1
    15    18     5    1
    16     6     5   ar
    17     6     7   ar
    18     5     4   ar
    19     1     3    1
    20    20     7    1
    21     7     8   ar
    22     4     3    1
    23     4     9   ar
    24     3     2    1
    25     8     9   ar
    26     8    21    1
    27     9    22    1
    28     2    14    1
    29    35    16    1
    30    36    16    1
    31    16    14    1
    32    16    37    1
    33    14    15    1
    34    14    17    1
    35    33    15    1
    36    32    15    1
    37    15    34    1
    38    38    17    1
    39    40    17    1
    40    17    39    1
