@<TRIPOS>MOLECULE
1,2
 40 40 0 0 0
SMALL
GASTEIGER

@<TRIPOS>ATOM
      1 N           5.3717    3.0336    2.7932 N.3     1  UNL1        0.0000
      2 N           6.0900    0.9646    2.5360 N.3     1  UNL1        0.0000
      3 C           6.3218    2.2304    2.3485 C.3     1  UNL1        0.0000
      4 C           7.5707    2.7508    1.7470 C.ar    1  UNL1        0.0000
      5 C           8.6708    2.9506    2.5731 C.ar    1  UNL1        0.0000
      6 C           9.8558    3.4284    2.0422 C.ar    1  UNL1        0.0000
      7 C           9.9484    3.7054    0.6877 C.ar    1  UNL1        0.0000
      8 C           8.8530    3.5055   -0.1360 C.ar    1  UNL1        0.0000
      9 C           7.6642    3.0302    0.3901 C.ar    1  UNL1        0.0000
     10 SI          5.4555    4.7533    3.0981 Si      1  UNL1        0.0000
     11 C           6.2697    5.7336    1.6686 C.3     1  UNL1        0.0000
     12 C           3.6313    5.2648    3.2909 C.3     1  UNL1        0.0000
     13 C           6.4335    4.9759    4.7295 C.3     1  UNL1        0.0000
     14 SI          7.1672   -0.3705    2.2934 Si      1  UNL1        0.0000
     15 C           6.0413   -1.9075    2.1545 C.3     1  UNL1        0.0000
     16 C           8.3313   -0.4911    3.8069 C.3     1  UNL1        0.0000
     17 C           8.2011   -0.2587    0.6838 C.3     1  UNL1        0.0000
     18 H           8.5806    2.7279    3.6263 H       1  UNL1        0.0000
     19 H          10.7098    3.5851    2.6847 H       1  UNL1        0.0000
     20 H          10.8743    4.0773    0.2743 H       1  UNL1        0.0000
     21 H           8.9258    3.7214   -1.1917 H       1  UNL1        0.0000
     22 H           6.8070    2.8741   -0.2472 H       1  UNL1        0.0000
     23 H           5.8793    5.4450    0.6980 H       1  UNL1        0.0000
     24 H           7.3468    5.6079    1.6413 H       1  UNL1        0.0000
     25 H           6.0670    6.7907    1.8006 H       1  UNL1        0.0000
     26 H           3.5303    6.2532    3.7265 H       1  UNL1        0.0000
     27 H           3.1487    4.5481    3.9532 H       1  UNL1        0.0000
     28 H           3.0970    5.2622    2.3453 H       1  UNL1        0.0000
     29 H           6.0921    5.8329    5.3013 H       1  UNL1        0.0000
     30 H           7.5016    5.0938    4.5653 H       1  UNL1        0.0000
     31 H           6.2761    4.0817    5.3381 H       1  UNL1        0.0000
     32 H           6.6262   -2.8142    2.0339 H       1  UNL1        0.0000
     33 H           5.3733   -1.8281    1.3006 H       1  UNL1        0.0000
     34 H           5.4303   -2.0138    3.0463 H       1  UNL1        0.0000
     35 H           7.8658    0.0116    4.6517 H       1  UNL1        0.0000
     36 H           9.2897   -0.0144    3.6203 H       1  UNL1        0.0000
     37 H           8.5273   -1.5191    4.0952 H       1  UNL1        0.0000
     38 H           7.5910    0.0180   -0.1706 H       1  UNL1        0.0000
     39 H           8.6495   -1.2227    0.4666 H       1  UNL1        0.0000
     40 H           9.0049    0.4663    0.7609 H       1  UNL1        0.0000
@<TRIPOS>BOND
     1    21     8    1
     2    22     9    1
     3    38    17    1
     4     8     9   ar
     5     8     7   ar
     6    20     7    1
     7     9     4   ar
     8    39    17    1
     9    17    40    1
    10    17    14    1
    11     7     6   ar
    12    23    11    1
    13    33    15    1
    14    24    11    1
    15    11    25    1
    16    11    10    1
    17     4     3    1
    18     4     5   ar
    19    32    15    1
    20     6     5   ar
    21     6    19    1
    22    15    14    1
    23    15    34    1
    24    14     2    1
    25    14    16    1
    26    28    12    1
    27     3     2    1
    28     3     1    1
    29     5    18    1
    30     1    10    1
    31    10    12    1
    32    10    13    1
    33    12    26    1
    34    12    27    1
    35    36    16    1
    36    16    37    1
    37    16    35    1
    38    30    13    1
    39    13    29    1
    40    13    31    1
