@<TRIPOS>MOLECULE
1,5
 65 65 0 0 0
SMALL
GASTEIGER

@<TRIPOS>ATOM
      1 N          -2.6661    3.2000    5.1733 N.pl3   1  UNL1        0.0000
      2 N          -4.5824    4.5835    5.1849 N.3     1  UNL1        0.0000
      3 N          -4.1084    3.3449    3.3397 N.pl3   1  UNL1        0.3300
      4 N          -3.8215    2.3393    1.3229 N.pl3   1  UNL1        0.3300
      5 N          -1.9431    2.7683    2.6415 N.pl3   1  UNL1        0.3300
      6 SI         -0.9918    4.0968    2.1153 Si      1  UNL1        0.0000
      7 C          -2.5394    3.2264    6.5673 C.ar    1  UNL1        0.0000
      8 C          -3.4879    2.5795    7.3835 C.ar    1  UNL1        0.0000
      9 C          -3.3532    2.6555    8.7615 C.ar    1  UNL1        0.0000
     10 H          -4.0790    2.1645    9.3922 H       1  UNL1        0.0000
     11 C          -2.3082    3.3432    9.3480 C.ar    1  UNL1        0.0000
     12 H          -2.2315    3.4040   10.4233 H       1  UNL1        0.0000
     13 C          -1.3466    3.9280    8.5455 C.ar    1  UNL1        0.0000
     14 H          -0.5117    4.4357    9.0042 H       1  UNL1        0.0000
     15 C          -1.4419    3.8750    7.1647 C.ar    1  UNL1        0.0000
     16 C          -4.5968    1.7406    6.7937 C.3     1  UNL1        0.0000
     17 H          -4.5940    1.8642    5.7085 H       1  UNL1        0.0000
     18 C          -5.9764    2.1566    7.3059 C.3     1  UNL1        0.0000
     19 H          -6.0684    1.9855    8.3756 H       1  UNL1        0.0000
     20 H          -6.7484    1.5782    6.8026 H       1  UNL1        0.0000
     21 H          -6.1521    3.2107    7.1076 H       1  UNL1        0.0000
     22 C          -4.3182    0.2656    7.0964 C.3     1  UNL1        0.0000
     23 H          -3.3437   -0.0183    6.7058 H       1  UNL1        0.0000
     24 H          -5.0737   -0.3652    6.6333 H       1  UNL1        0.0000
     25 H          -4.3257    0.0815    8.1682 H       1  UNL1        0.0000
     26 C          -0.3583    4.4776    6.3035 C.3     1  UNL1        0.0000
     27 H          -0.7007    4.4483    5.2630 H       1  UNL1        0.0000
     28 C          -0.0422    5.9281    6.6735 C.3     1  UNL1        0.0000
     29 H          -0.9426    6.5398    6.6677 H       1  UNL1        0.0000
     30 H           0.6600    6.3479    5.9561 H       1  UNL1        0.0000
     31 H           0.4058    5.9942    7.6619 H       1  UNL1        0.0000
     32 C           0.8934    3.6045    6.4124 C.3     1  UNL1        0.0000
     33 H           1.2212    3.5317    7.4469 H       1  UNL1        0.0000
     34 H           1.7046    4.0221    5.8218 H       1  UNL1        0.0000
     35 H           0.6654    2.6033    6.0449 H       1  UNL1        0.0000
     36 C          -3.7194    3.7088    4.5664 C.3     1  UNL1        0.0000
     37 C          -4.1388    5.5683    6.1423 C.3     1  UNL1        0.0000
     38 H          -4.5745    5.3832    7.1298 H       1  UNL1        0.0000
     39 H          -4.4417    6.5646    5.8066 H       1  UNL1        0.0000
     40 H          -3.0582    5.5541    6.2365 H       1  UNL1        0.0000
     41 C          -5.8254    4.9100    4.5295 C.3     1  UNL1        0.0000
     42 H          -5.7004    5.6884    3.7680 H       1  UNL1        0.0000
     43 H          -6.5323    5.2609    5.2823 H       1  UNL1        0.0000
     44 H          -6.2185    4.0168    4.0522 H       1  UNL1        0.0000
     45 C          -3.2747    2.8068    2.4711 C.cat   1  UNL1        0.0000
     46 C          -5.2317    2.4387    1.0584 C.3     1  UNL1        0.0000
     47 H          -5.6980    1.4486    1.0316 H       1  UNL1        0.0000
     48 H          -5.3962    2.9257    0.0932 H       1  UNL1        0.0000
     49 H          -5.6844    3.0286    1.8492 H       1  UNL1        0.0000
     50 C          -3.0364    1.6673    0.3243 C.3     1  UNL1        0.0000
     51 H          -2.0377    1.5011    0.7187 H       1  UNL1        0.0000
     52 H          -2.9692    2.2620   -0.5909 H       1  UNL1        0.0000
     53 H          -3.4976    0.7067    0.0758 H       1  UNL1        0.0000
     54 C          -1.7371    5.7946    2.6151 C.3     1  UNL1        0.0000
     55 H          -2.7593    5.8730    2.2554 H       1  UNL1        0.0000
     56 H          -1.1763    6.6265    2.1999 H       1  UNL1        0.0000
     57 H          -1.7656    5.9201    3.6931 H       1  UNL1        0.0000
     58 C          -0.7715    4.1858    0.2134 C.3     1  UNL1        0.0000
     59 H          -0.3751    3.2629   -0.1970 H       1  UNL1        0.0000
     60 H          -0.0737    4.9783   -0.0379 H       1  UNL1        0.0000
     61 H          -1.7057    4.4037   -0.2937 H       1  UNL1        0.0000
     62 C           0.7146    3.8559    2.9247 C.3     1  UNL1        0.0000
     63 H           0.6614    3.0733    3.6783 H       1  UNL1        0.0000
     64 H           1.0604    4.7685    3.3955 H       1  UNL1        0.0000
     65 H           1.4608    3.5660    2.1953 H       1  UNL1        0.0000
@<TRIPOS>BOND
     1    52    50    1
     2    61    58    1
     3    59    58    1
     4    60    58    1
     5    53    50    1
     6    48    46    1
     7    58     6    1
     8    50    51    1
     9    50     4    1
    10    47    46    1
    11    46     4    1
    12    46    49    1
    13     4    45    1
    14     6    54    1
    15     6     5    1
    16     6    62    1
    17    65    62    1
    18    56    54    1
    19    55    54    1
    20    45     5    1
    21    45     3    2
    22    54    57    1
    23    62    64    1
    24    62    63    1
    25     3    36    1
    26    42    41    1
    27    44    41    1
    28    41     2    1
    29    41    43    1
    30    36     1    1
    31    36     2    1
    32     1     7    1
    33     2    37    1
    34    27    26    1
    35    17    16    1
    36    39    37    1
    37    34    32    1
    38    30    28    1
    39    35    32    1
    40    37    40    1
    41    37    38    1
    42    26    32    1
    43    26    28    1
    44    26    15    1
    45    32    33    1
    46     7    15   ar
    47     7     8   ar
    48    24    22    1
    49    29    28    1
    50    28    31    1
    51    23    22    1
    52    16    22    1
    53    16    18    1
    54    16     8    1
    55    20    18    1
    56    22    25    1
    57    21    18    1
    58    15    13   ar
    59    18    19    1
    60     8     9   ar
    61    13    14    1
    62    13    11   ar
    63     9    11   ar
    64     9    10    1
    65    11    12    1
