@<TRIPOS>MOLECULE
3,4
 40 40 0 0 0
SMALL
GASTEIGER

@<TRIPOS>ATOM
      1 SI          2.1284   -2.3409    6.3013 Si      1  UNL1        0.0000
      2 SI          4.9813    1.1400    3.1255 Si      1  UNL1        0.0000
      3 N           2.7190   -1.4350    4.9284 N.3     1  UNL1        0.0000
      4 N           3.9069   -0.1360    3.6458 N.3     1  UNL1        0.0000
      5 C           3.8516   -0.7750    4.8000 C.3     1  UNL1        0.0000
      6 C           4.8969   -0.6860    5.8393 C.ar    1  UNL1        0.0000
      7 C           6.0454   -1.4639    5.7766 C.ar    1  UNL1        0.0000
      8 H           6.1723   -2.1669    4.9662 H       1  UNL1        0.0000
      9 C           7.0148   -1.3446    6.7574 C.ar    1  UNL1        0.0000
     10 H           7.9054   -1.9539    6.7095 H       1  UNL1        0.0000
     11 C           6.8452   -0.4458    7.7973 C.ar    1  UNL1        0.0000
     12 H           7.6039   -0.3542    8.5603 H       1  UNL1        0.0000
     13 C           5.7016    0.3339    7.8586 C.ar    1  UNL1        0.0000
     14 H           5.5688    1.0358    8.6684 H       1  UNL1        0.0000
     15 C           4.7265    0.2152    6.8842 C.ar    1  UNL1        0.0000
     16 H           3.8322    0.8187    6.9186 H       1  UNL1        0.0000
     17 C           1.2165   -1.1323    7.4704 C.3     1  UNL1        0.0000
     18 H           1.9120   -0.6127    8.1238 H       1  UNL1        0.0000
     19 H           0.5068   -1.6566    8.1029 H       1  UNL1        0.0000
     20 H           0.6692   -0.3771    6.9113 H       1  UNL1        0.0000
     21 C           3.5317   -3.2375    7.2390 C.3     1  UNL1        0.0000
     22 H           4.2154   -3.7497    6.5686 H       1  UNL1        0.0000
     23 H           3.1061   -3.9801    7.9063 H       1  UNL1        0.0000
     24 H           4.1177   -2.5519    7.8418 H       1  UNL1        0.0000
     25 C           0.9406   -3.6391    5.5576 C.3     1  UNL1        0.0000
     26 H           1.4500   -4.5751    5.3451 H       1  UNL1        0.0000
     27 H           0.5141   -3.2713    4.6278 H       1  UNL1        0.0000
     28 H           0.1212   -3.8603    6.2341 H       1  UNL1        0.0000
     29 C           4.8449    2.6725    4.2572 C.3     1  UNL1        0.0000
     30 H           5.2944    2.4813    5.2278 H       1  UNL1        0.0000
     31 H           3.8125    2.9673    4.4211 H       1  UNL1        0.0000
     32 H           5.3646    3.5178    3.8166 H       1  UNL1        0.0000
     33 C           4.2379    1.4562    1.3876 C.3     1  UNL1        0.0000
     34 H           4.9333    1.2353    0.5839 H       1  UNL1        0.0000
     35 H           3.9130    2.4846    1.2686 H       1  UNL1        0.0000
     36 H           3.3560    0.8138    1.2519 H       1  UNL1        0.0000
     37 C           6.8235    0.6501    3.0470 C.3     1  UNL1        0.0000
     38 H           7.0290   -0.1236    2.3157 H       1  UNL1        0.0000
     39 H           7.1823    0.3041    4.0116 H       1  UNL1        0.0000
     40 H           7.4084    1.5223    2.7739 H       1  UNL1        0.0000
@<TRIPOS>BOND
     1    34    33    1
     2    36    33    1
     3    35    33    1
     4    33     2    1
     5    38    37    1
     6    40    37    1
     7    37     2    1
     8    37    39    1
     9     2     4    1
    10     2    29    1
    11     4     5    1
    12    32    29    1
    13    29    31    1
    14    29    30    1
    15    27    25    1
    16     5     3    1
    17     5     6    1
    18     3     1    1
    19     8     7    1
    20    26    25    1
    21    25    28    1
    22    25     1    1
    23     7     6   ar
    24     7     9   ar
    25     6    15   ar
    26     1    21    1
    27     1    17    1
    28    22    21    1
    29    10     9    1
    30     9    11   ar
    31    15    16    1
    32    15    13   ar
    33    20    17    1
    34    21    24    1
    35    21    23    1
    36    17    19    1
    37    17    18    1
    38    11    13   ar
    39    11    12    1
    40    13    14    1
