@<TRIPOS>MOLECULE
3,4
 40 40 0 0 0
SMALL
GASTEIGER

@<TRIPOS>ATOM
      1 SI          4.1251    4.2678    7.6536 Si      1  UNL1        0.0000
      2 SI         -1.3048    3.1819    8.5345 Si      1  UNL1        0.0000
      3 N           2.5184    3.6037    7.8155 N.3     1  UNL1        0.0000
      4 N           0.4134    3.1773    8.1297 N.3     1  UNL1        0.0000
      5 C           1.3692    4.0930    8.1603 C.3     1  UNL1        0.0000
      6 C           1.1618    5.5073    8.5200 C.ar    1  UNL1        0.0000
      7 C           0.7414    6.4075    7.5497 C.ar    1  UNL1        0.0000
      8 H           0.5406    6.0563    6.5488 H       1  UNL1        0.0000
      9 C           0.5892    7.7445    7.8730 C.ar    1  UNL1        0.0000
     10 H           0.2647    8.4452    7.1185 H       1  UNL1        0.0000
     11 C           0.8537    8.1832    9.1598 C.ar    1  UNL1        0.0000
     12 H           0.7348    9.2268    9.4091 H       1  UNL1        0.0000
     13 C           1.2713    7.2838   10.1265 C.ar    1  UNL1        0.0000
     14 H           1.4757    7.6253   11.1301 H       1  UNL1        0.0000
     15 C           1.4289    5.9455    9.8099 C.ar    1  UNL1        0.0000
     16 H           1.7506    5.2367   10.5577 H       1  UNL1        0.0000
     17 C           4.7794    4.7128    9.3924 C.3     1  UNL1        0.0000
     18 H           4.6512    3.8836   10.0819 H       1  UNL1        0.0000
     19 H           4.2706    5.5779    9.8080 H       1  UNL1        0.0000
     20 H           5.8384    4.9454    9.3509 H       1  UNL1        0.0000
     21 C           5.0977    2.8500    6.8560 C.3     1  UNL1        0.0000
     22 H           5.0537    1.9691    7.4911 H       1  UNL1        0.0000
     23 H           6.1408    3.0962    6.6849 H       1  UNL1        0.0000
     24 H           4.6513    2.5737    5.9045 H       1  UNL1        0.0000
     25 C           4.0565    5.8261    6.5503 C.3     1  UNL1        0.0000
     26 H           3.5572    5.6227    5.6077 H       1  UNL1        0.0000
     27 H           5.0599    6.1704    6.3228 H       1  UNL1        0.0000
     28 H           3.5312    6.6438    7.0358 H       1  UNL1        0.0000
     29 C          -1.5071    1.8995    9.9267 C.3     1  UNL1        0.0000
     30 H          -1.0335    2.2184   10.8523 H       1  UNL1        0.0000
     31 H          -1.0435    0.9653    9.6207 H       1  UNL1        0.0000
     32 H          -2.5524    1.7009   10.1419 H       1  UNL1        0.0000
     33 C          -1.8508    4.9012    9.1586 C.3     1  UNL1        0.0000
     34 H          -1.2877    5.2290   10.0258 H       1  UNL1        0.0000
     35 H          -2.8946    4.8467    9.4478 H       1  UNL1        0.0000
     36 H          -1.7621    5.6694    8.3984 H       1  UNL1        0.0000
     37 C          -2.2138    2.7420    6.9209 C.3     1  UNL1        0.0000
     38 H          -2.1348    3.5290    6.1745 H       1  UNL1        0.0000
     39 H          -3.2692    2.5554    7.0929 H       1  UNL1        0.0000
     40 H          -1.7772    1.8396    6.5010 H       1  UNL1        0.0000
@<TRIPOS>BOND
     1    26    25    1
     2    24    21    1
     3    38    37    1
     4    27    25    1
     5    40    37    1
     6     8     7    1
     7    25    28    1
     8    25     1    1
     9    23    21    1
    10    21    22    1
    11    21     1    1
    12    37    39    1
    13    37     2    1
    14    10     9    1
    15     7     9   ar
    16     7     6   ar
    17     1     3    1
    18     1    17    1
    19     3     5    1
    20     9    11   ar
    21     4     5    1
    22     4     2    1
    23     5     6    1
    24    36    33    1
    25     6    15   ar
    26     2    33    1
    27     2    29    1
    28    33    35    1
    29    33    34    1
    30    11    12    1
    31    11    13   ar
    32    20    17    1
    33    17    19    1
    34    17    18    1
    35    31    29    1
    36    15    13   ar
    37    15    16    1
    38    29    32    1
    39    29    30    1
    40    13    14    1
