@<TRIPOS>MOLECULE
3,4
 64 65 0 0 0
SMALL
GASTEIGER

@<TRIPOS>ATOM
      1 SI          1.0238   14.6096    3.0424 Si      1  UNL1        0.0000
      2 SI         -1.1601   12.5761    2.0075 Si      1  UNL1        0.0000
      3 N           2.2090   11.5804    2.0032 N.3     1  UNL1        0.0000
      4 N           1.3432   11.2932    4.0422 N.3     1  UNL1        0.0000
      5 N           0.4038   13.0109    2.6704 N.3     1  UNL1        0.0000
      6 C           2.1978   12.1331    0.6626 C.3     1  UNL1        0.0000
      7 H           1.4465   12.9288    0.5872 H       1  UNL1        0.0000
      8 C           3.5704   12.7168    0.3135 C.3     1  UNL1        0.0000
      9 H           4.3171   11.9280    0.4442 H       1  UNL1        0.0000
     10 H           3.7993   13.5285    1.0063 H       1  UNL1        0.0000
     11 C           3.6116   13.2346   -1.1207 C.3     1  UNL1        0.0000
     12 H           4.6048   13.6343   -1.3415 H       1  UNL1        0.0000
     13 H           2.8929   14.0504   -1.2341 H       1  UNL1        0.0000
     14 C           3.2660   12.1220   -2.1042 C.3     1  UNL1        0.0000
     15 H           3.2826   12.5067   -3.1266 H       1  UNL1        0.0000
     16 H           4.0133   11.3283   -2.0320 H       1  UNL1        0.0000
     17 C           1.8887   11.5532   -1.7811 C.3     1  UNL1        0.0000
     18 H           1.1394   12.3386   -1.9072 H       1  UNL1        0.0000
     19 H           1.6455   10.7448   -2.4748 H       1  UNL1        0.0000
     20 C           1.8474   11.0321   -0.3480 C.3     1  UNL1        0.0000
     21 H           2.5682   10.2183   -0.2313 H       1  UNL1        0.0000
     22 H           0.8548   10.6398   -0.1170 H       1  UNL1        0.0000
     23 C           0.4047   11.5690    5.1089 C.3     1  UNL1        0.0000
     24 H          -0.4602   12.1258    4.7218 H       1  UNL1        0.0000
     25 C          -0.0821   10.2333    5.6844 C.3     1  UNL1        0.0000
     26 H           0.7956    9.6590    6.0051 H       1  UNL1        0.0000
     27 H          -0.5797    9.6636    4.8961 H       1  UNL1        0.0000
     28 C          -1.0341   10.4474    6.8570 C.3     1  UNL1        0.0000
     29 H          -1.9265   10.9707    6.5038 H       1  UNL1        0.0000
     30 H          -1.3523    9.4819    7.2582 H       1  UNL1        0.0000
     31 C          -0.3682   11.2725    7.9538 C.3     1  UNL1        0.0000
     32 H           0.4807   10.7202    8.3615 H       1  UNL1        0.0000
     33 H          -1.0747   11.4457    8.7693 H       1  UNL1        0.0000
     34 C           0.1157   12.6062    7.3934 C.3     1  UNL1        0.0000
     35 H          -0.7488   13.1872    7.0599 H       1  UNL1        0.0000
     36 H           0.6173   13.1784    8.1775 H       1  UNL1        0.0000
     37 C           1.0672   12.3960    6.2192 C.3     1  UNL1        0.0000
     38 H           1.9677   11.8728    6.5492 H       1  UNL1        0.0000
     39 H           1.3746   13.3590    5.8108 H       1  UNL1        0.0000
     40 C           1.3156   11.9546    2.8972 C.3     1  UNL1        0.0000
     41 C           1.0071   15.7301    1.4941 C.3     1  UNL1        0.0000
     42 H           1.5874   15.3232    0.6722 H       1  UNL1        0.0000
     43 H           1.4251   16.7016    1.7394 H       1  UNL1        0.0000
     44 H          -0.0044   15.8967    1.1379 H       1  UNL1        0.0000
     45 C          -0.0722   15.4764    4.3463 C.3     1  UNL1        0.0000
     46 H          -0.4052   14.8086    5.1327 H       1  UNL1        0.0000
     47 H          -0.9549   15.9075    3.8871 H       1  UNL1        0.0000
     48 H           0.4741   16.2897    4.8142 H       1  UNL1        0.0000
     49 C           2.8171   14.4854    3.6887 C.3     1  UNL1        0.0000
     50 H           3.5147   14.9661    3.0088 H       1  UNL1        0.0000
     51 H           3.1253   13.4480    3.7994 H       1  UNL1        0.0000
     52 H           2.9296   14.9693    4.6548 H       1  UNL1        0.0000
     53 C          -1.3522   13.1009    0.1787 C.3     1  UNL1        0.0000
     54 H          -0.8043   12.4516   -0.4963 H       1  UNL1        0.0000
     55 H          -1.0117   14.1168    0.0080 H       1  UNL1        0.0000
     56 H          -2.3990   13.0570   -0.1074 H       1  UNL1        0.0000
     57 C          -2.5500   13.4556    2.9751 C.3     1  UNL1        0.0000
     58 H          -2.4549   13.3478    4.0502 H       1  UNL1        0.0000
     59 H          -2.5736   14.5164    2.7515 H       1  UNL1        0.0000
     60 H          -3.5122   13.0437    2.6880 H       1  UNL1        0.0000
     61 C          -1.3821   10.6866    2.1256 C.3     1  UNL1        0.0000
     62 H          -1.8741   10.2890    1.2427 H       1  UNL1        0.0000
     63 H          -1.9844   10.4080    2.9851 H       1  UNL1        0.0000
     64 H          -0.4185   10.1949    2.2247 H       1  UNL1        0.0000
@<TRIPOS>BOND
     1    15    14    1
     2    19    17    1
     3    14    16    1
     4    14    17    1
     5    14    11    1
     6    18    17    1
     7    17    20    1
     8    12    11    1
     9    13    11    1
    10    11     8    1
    11    54    53    1
    12    20    21    1
    13    20    22    1
    14    20     6    1
    15    56    53    1
    16    55    53    1
    17    53     2    1
    18     8     9    1
    19     8     6    1
    20     8    10    1
    21     7     6    1
    22     6     3    1
    23    42    41    1
    24    44    41    1
    25    62    61    1
    26    41    43    1
    27    41     1    1
    28     3    40    1
    29     2    61    1
    30     2     5    1
    31     2    57    1
    32    61    64    1
    33    61    63    1
    34     5    40    1
    35     5     1    1
    36    60    57    1
    37    59    57    1
    38    40     4    1
    39    57    58    1
    40    50    49    1
    41     1    49    1
    42     1    45    1
    43    49    51    1
    44    49    52    1
    45    47    45    1
    46     4    23    1
    47    45    48    1
    48    45    46    1
    49    24    23    1
    50    27    25    1
    51    23    25    1
    52    23    37    1
    53    25    26    1
    54    25    28    1
    55    39    37    1
    56    37    38    1
    57    37    34    1
    58    29    28    1
    59    28    30    1
    60    28    31    1
    61    35    34    1
    62    34    31    1
    63    34    36    1
    64    31    32    1
    65    31    33    1
