@<TRIPOS>MOLECULE
3,4
 64 65 0 0 0
SMALL
GASTEIGER

@<TRIPOS>ATOM
      1 SI          6.7619   11.7481    6.9303 Si      1  UNL1        0.0000
      2 SI          7.7734    8.9625    5.8290 Si      1  UNL1        0.0000
      3 N           5.4041   10.6119    3.9543 N.3     1  UNL1        0.0000
      4 N           4.3449    9.6176    5.6522 N.3     1  UNL1        0.0000
      5 N           6.6232   10.2769    5.9856 N.3     1  UNL1        0.0000
      6 C           6.5521   11.2167    3.3101 C.3     1  UNL1        0.0000
      7 H           7.4384   11.1380    3.9507 H       1  UNL1        0.0000
      8 C           6.8194   10.4767    1.9927 C.3     1  UNL1        0.0000
      9 H           7.0718    9.4368    2.2147 H       1  UNL1        0.0000
     10 H           5.8913   10.4774    1.4080 H       1  UNL1        0.0000
     11 C           7.9446   11.1297    1.1962 C.3     1  UNL1        0.0000
     12 H           8.0915   10.5931    0.2558 H       1  UNL1        0.0000
     13 H           8.8757   11.0661    1.7651 H       1  UNL1        0.0000
     14 C           7.6284   12.5952    0.9177 C.3     1  UNL1        0.0000
     15 H           8.4490   13.0546    0.3615 H       1  UNL1        0.0000
     16 H           6.7272   12.6637    0.3052 H       1  UNL1        0.0000
     17 C           7.4061   13.3392    2.2299 C.3     1  UNL1        0.0000
     18 H           8.3285   13.3137    2.8165 H       1  UNL1        0.0000
     19 H           7.1687   14.3867    2.0293 H       1  UNL1        0.0000
     20 C           6.2763   12.6995    3.0307 C.3     1  UNL1        0.0000
     21 H           5.3360   12.7716    2.4799 H       1  UNL1        0.0000
     22 H           6.1506   13.2216    3.9801 H       1  UNL1        0.0000
     23 C           4.2953    9.0025    6.9645 C.3     1  UNL1        0.0000
     24 H           5.3134    8.8721    7.3569 H       1  UNL1        0.0000
     25 C           3.6267    7.6273    6.8556 C.3     1  UNL1        0.0000
     26 H           4.2042    6.9990    6.1772 H       1  UNL1        0.0000
     27 H           2.6309    7.7629    6.4204 H       1  UNL1        0.0000
     28 C           3.5139    6.9519    8.2189 C.3     1  UNL1        0.0000
     29 H           4.5157    6.7783    8.6202 H       1  UNL1        0.0000
     30 H           3.0258    5.9806    8.1098 H       1  UNL1        0.0000
     31 C           2.7267    7.8245    9.1908 C.3     1  UNL1        0.0000
     32 H           1.7061    7.9489    8.8212 H       1  UNL1        0.0000
     33 H           2.6721    7.3416   10.1693 H       1  UNL1        0.0000
     34 C           3.3906    9.1915    9.3168 C.3     1  UNL1        0.0000
     35 H           4.3899    9.0671    9.7424 H       1  UNL1        0.0000
     36 H           2.8166    9.8255    9.9977 H       1  UNL1        0.0000
     37 C           3.4943    9.8617    7.9507 C.3     1  UNL1        0.0000
     38 H           3.9648   10.8406    8.0440 H       1  UNL1        0.0000
     39 H           2.4930   10.0012    7.5393 H       1  UNL1        0.0000
     40 C           5.4539   10.1669    5.1989 C.3     1  UNL1        0.0000
     41 C           8.3502   12.6989    6.4578 C.3     1  UNL1        0.0000
     42 H           8.3882   13.6441    6.9904 H       1  UNL1        0.0000
     43 H           8.4080   12.9185    5.3967 H       1  UNL1        0.0000
     44 H           9.2390   12.1401    6.7323 H       1  UNL1        0.0000
     45 C           5.2470   12.8718    6.6253 C.3     1  UNL1        0.0000
     46 H           4.7068   13.0741    7.5460 H       1  UNL1        0.0000
     47 H           4.5526   12.4121    5.9264 H       1  UNL1        0.0000
     48 H           5.5432   13.8330    6.2147 H       1  UNL1        0.0000
     49 C           6.8956   11.3565    8.7954 C.3     1  UNL1        0.0000
     50 H           6.1430   10.6532    9.1339 H       1  UNL1        0.0000
     51 H           6.7785   12.2671    9.3752 H       1  UNL1        0.0000
     52 H           7.8668   10.9420    9.0417 H       1  UNL1        0.0000
     53 C           6.9477    7.5285    4.8843 C.3     1  UNL1        0.0000
     54 H           6.4660    6.8295    5.5609 H       1  UNL1        0.0000
     55 H           6.1873    7.9090    4.2066 H       1  UNL1        0.0000
     56 H           7.6729    6.9689    4.3006 H       1  UNL1        0.0000
     57 C           9.3578    9.4608    4.8783 C.3     1  UNL1        0.0000
     58 H           9.7289   10.4344    5.1797 H       1  UNL1        0.0000
     59 H           9.2028    9.4840    3.8040 H       1  UNL1        0.0000
     60 H          10.1444    8.7386    5.0761 H       1  UNL1        0.0000
     61 C           8.3258    8.3758    7.5581 C.3     1  UNL1        0.0000
     62 H           9.0077    9.0860    8.0127 H       1  UNL1        0.0000
     63 H           7.4962    8.2301    8.2415 H       1  UNL1        0.0000
     64 H           8.8528    7.4308    7.4747 H       1  UNL1        0.0000
@<TRIPOS>BOND
     1    12    11    1
     2    16    14    1
     3    15    14    1
     4    14    11    1
     5    14    17    1
     6    11    13    1
     7    11     8    1
     8    10     8    1
     9     8     9    1
    10     8     6    1
    11    19    17    1
    12    17    18    1
    13    17    20    1
    14    21    20    1
    15    20     6    1
    16    20    22    1
    17     6     7    1
    18     6     3    1
    19    59    57    1
    20     3    40    1
    21    55    53    1
    22    56    53    1
    23    57    60    1
    24    57    58    1
    25    57     2    1
    26    53    54    1
    27    53     2    1
    28    40     4    1
    29    40     5    1
    30    43    41    1
    31     4    23    1
    32     2     5    1
    33     2    61    1
    34    47    45    1
    35     5     1    1
    36    26    25    1
    37    48    45    1
    38    27    25    1
    39    41    44    1
    40    41     1    1
    41    41    42    1
    42    45     1    1
    43    45    46    1
    44    25    23    1
    45    25    28    1
    46     1    49    1
    47    23    24    1
    48    23    37    1
    49    64    61    1
    50    39    37    1
    51    61    62    1
    52    61    63    1
    53    37    38    1
    54    37    34    1
    55    30    28    1
    56    28    29    1
    57    28    31    1
    58    49    52    1
    59    49    50    1
    60    49    51    1
    61    32    31    1
    62    31    34    1
    63    31    33    1
    64    34    35    1
    65    34    36    1
