@<TRIPOS>MOLECULE
3,4
 64 65 0 0 0
SMALL
GASTEIGER

@<TRIPOS>ATOM
      1 SI          6.7367    3.8296    0.7559 Si      1  UNL1        0.0000
      2 SI          3.7059    4.3434    0.1193 Si      1  UNL1        0.0000
      3 N           5.1205    6.3375    2.5614 N.3     1  UNL1        0.0000
      4 N           4.7364    4.3722    3.5118 N.3     1  UNL1        0.0000
      5 N           5.1272    4.4003    1.1449 N.3     1  UNL1        0.0000
      6 C           4.9911    5.0361    2.3950 C.3     1  UNL1        0.0000
      7 C           5.5118    7.2287    1.4866 C.3     1  UNL1        0.0000
      8 H           5.5559    6.6792    0.5362 H       1  UNL1        0.0000
      9 C           4.4982    8.3733    1.3677 C.3     1  UNL1        0.0000
     10 H           4.4306    8.8705    2.3400 H       1  UNL1        0.0000
     11 H           3.5168    7.9650    1.1199 H       1  UNL1        0.0000
     12 C           4.9251    9.3768    0.3012 C.3     1  UNL1        0.0000
     13 H           4.9564    8.8824   -0.6741 H       1  UNL1        0.0000
     14 H           4.1916   10.1839    0.2429 H       1  UNL1        0.0000
     15 C           6.3013    9.9478    0.6245 C.3     1  UNL1        0.0000
     16 H           6.2542   10.4770    1.5779 H       1  UNL1        0.0000
     17 H           6.6043   10.6594   -0.1473 H       1  UNL1        0.0000
     18 C           7.3218    8.8198    0.7283 C.3     1  UNL1        0.0000
     19 H           7.4024    8.3141   -0.2383 H       1  UNL1        0.0000
     20 H           8.3051    9.2269    0.9761 H       1  UNL1        0.0000
     21 C           6.8926    7.8220    1.7983 C.3     1  UNL1        0.0000
     22 H           6.8257    8.3304    2.7637 H       1  UNL1        0.0000
     23 H           7.6220    7.0124    1.8822 H       1  UNL1        0.0000
     24 C           4.4135    2.9615    3.5173 C.3     1  UNL1        0.0000
     25 H           4.7693    2.4841    2.5925 H       1  UNL1        0.0000
     26 C           5.0950    2.3041    4.7223 C.3     1  UNL1        0.0000
     27 H           4.8089    2.8642    5.6193 H       1  UNL1        0.0000
     28 H           6.1788    2.3815    4.6065 H       1  UNL1        0.0000
     29 C           4.6982    0.8388    4.8692 C.3     1  UNL1        0.0000
     30 H           5.0363    0.2826    3.9909 H       1  UNL1        0.0000
     31 H           5.1904    0.4099    5.7454 H       1  UNL1        0.0000
     32 C           3.1855    0.7032    5.0008 C.3     1  UNL1        0.0000
     33 H           2.9110   -0.3501    5.0952 H       1  UNL1        0.0000
     34 H           2.8522    1.2218    5.9015 H       1  UNL1        0.0000
     35 C           2.5021    1.3155    3.7833 C.3     1  UNL1        0.0000
     36 H           1.4173    1.2323    3.8815 H       1  UNL1        0.0000
     37 H           2.7988    0.7604    2.8890 H       1  UNL1        0.0000
     38 C           2.8923    2.7817    3.6282 C.3     1  UNL1        0.0000
     39 H           2.4204    3.2039    2.7402 H       1  UNL1        0.0000
     40 H           2.5487    3.3556    4.4931 H       1  UNL1        0.0000
     41 C           7.8126    3.8869    2.3267 C.3     1  UNL1        0.0000
     42 H           7.4820    4.6929    2.9748 H       1  UNL1        0.0000
     43 H           8.8583    4.0486    2.0800 H       1  UNL1        0.0000
     44 H           7.7466    2.9599    2.8883 H       1  UNL1        0.0000
     45 C           7.5964    4.8806   -0.5889 C.3     1  UNL1        0.0000
     46 H           6.9807    4.9870   -1.4751 H       1  UNL1        0.0000
     47 H           8.5220    4.4010   -0.8940 H       1  UNL1        0.0000
     48 H           7.8455    5.8777   -0.2407 H       1  UNL1        0.0000
     49 C           6.6480    2.0383    0.1061 C.3     1  UNL1        0.0000
     50 H           6.0465    1.3899    0.7344 H       1  UNL1        0.0000
     51 H           7.6456    1.6142    0.0554 H       1  UNL1        0.0000
     52 H           6.2337    2.0062   -0.8956 H       1  UNL1        0.0000
     53 C           2.2908    5.3398    0.9181 C.3     1  UNL1        0.0000
     54 H           2.5764    5.6687    1.9145 H       1  UNL1        0.0000
     55 H           1.3816    4.7509    1.0027 H       1  UNL1        0.0000
     56 H           2.0494    6.2217    0.3316 H       1  UNL1        0.0000
     57 C           3.1355    2.5409   -0.1612 C.3     1  UNL1        0.0000
     58 H           3.8280    2.0031   -0.7991 H       1  UNL1        0.0000
     59 H           2.1690    2.5310   -0.6563 H       1  UNL1        0.0000
     60 H           3.0361    1.9798    0.7615 H       1  UNL1        0.0000
     61 C           4.0837    5.0743   -1.6034 C.3     1  UNL1        0.0000
     62 H           4.4846    6.0817   -1.5546 H       1  UNL1        0.0000
     63 H           3.1730    5.1138   -2.1928 H       1  UNL1        0.0000
     64 H           4.7919    4.4583   -2.1477 H       1  UNL1        0.0000
@<TRIPOS>BOND
     1    63    61    1
     2    64    61    1
     3    61    62    1
     4    61     2    1
     5    46    45    1
     6    52    49    1
     7    47    45    1
     8    58    57    1
     9    13    12    1
    10    59    57    1
    11    45    48    1
    12    45     1    1
    13    19    18    1
    14    57     2    1
    15    57    60    1
    16    17    15    1
    17    51    49    1
    18    49    50    1
    19    49     1    1
    20     2    53    1
    21     2     5    1
    22    14    12    1
    23    12    15    1
    24    12     9    1
    25    56    53    1
    26     8     7    1
    27    15    18    1
    28    15    16    1
    29    18    20    1
    30    18    21    1
    31     1     5    1
    32     1    41    1
    33    53    55    1
    34    53    54    1
    35    11     9    1
    36     5     6    1
    37     9     7    1
    38     9    10    1
    39     7    21    1
    40     7     3    1
    41    21    23    1
    42    21    22    1
    43    43    41    1
    44    41    44    1
    45    41    42    1
    46     6     3    1
    47     6     4    1
    48    25    24    1
    49    39    38    1
    50    37    35    1
    51     4    24    1
    52    24    38    1
    53    24    26    1
    54    38    35    1
    55    38    40    1
    56    35    36    1
    57    35    32    1
    58    30    29    1
    59    28    26    1
    60    26    29    1
    61    26    27    1
    62    29    32    1
    63    29    31    1
    64    32    33    1
    65    32    34    1
