@<TRIPOS>MOLECULE
3,4
 64 65 0 0 0
SMALL
GASTEIGER

@<TRIPOS>ATOM
      1 SI          0.9841    5.1509    8.2433 Si      1  UNL1        0.0000
      2 SI          1.7912    8.1809    8.4607 Si      1  UNL1        0.0000
      3 N           4.0746    5.9607    6.9633 N.3     1  UNL1        0.0000
      4 N           2.5429    6.5425    5.4601 N.3     1  UNL1        0.0000
      5 N           1.8942    6.5688    7.7625 N.3     1  UNL1        0.0000
      6 C           2.8359    6.3728    6.7381 C.3     1  UNL1        0.0000
      7 C           4.5814    5.8140    8.3137 C.3     1  UNL1        0.0000
      8 H           3.7823    6.0094    9.0387 H       1  UNL1        0.0000
      9 C           5.1065    4.3889    8.5304 C.3     1  UNL1        0.0000
     10 H           5.8446    4.1679    7.7536 H       1  UNL1        0.0000
     11 H           4.2825    3.6820    8.4203 H       1  UNL1        0.0000
     12 C           5.7362    4.2381    9.9120 C.3     1  UNL1        0.0000
     13 H           4.9723    4.4026   10.6758 H       1  UNL1        0.0000
     14 H           6.1172    3.2212   10.0359 H       1  UNL1        0.0000
     15 C           6.8639    5.2458   10.1105 C.3     1  UNL1        0.0000
     16 H           7.6599    5.0473    9.3882 H       1  UNL1        0.0000
     17 H           7.2889    5.1367   11.1112 H       1  UNL1        0.0000
     18 C           6.3409    6.6656    9.9164 C.3     1  UNL1        0.0000
     19 H           5.5905    6.8766   10.6818 H       1  UNL1        0.0000
     20 H           7.1544    7.3846   10.0396 H       1  UNL1        0.0000
     21 C           5.7158    6.8229    8.5345 C.3     1  UNL1        0.0000
     22 H           6.4696    6.6600    7.7606 H       1  UNL1        0.0000
     23 H           5.3264    7.8340    8.3985 H       1  UNL1        0.0000
     24 C           1.2569    7.0422    5.0201 C.3     1  UNL1        0.0000
     25 H           0.7059    7.4707    5.8699 H       1  UNL1        0.0000
     26 C           0.4235    5.9102    4.4036 C.3     1  UNL1        0.0000
     27 H           0.2384    5.1473    5.1612 H       1  UNL1        0.0000
     28 H           1.0062    5.4508    3.6021 H       1  UNL1        0.0000
     29 C          -0.8946    6.4412    3.8491 C.3     1  UNL1        0.0000
     30 H          -1.4904    6.8615    4.6638 H       1  UNL1        0.0000
     31 H          -1.4668    5.6218    3.4072 H       1  UNL1        0.0000
     32 C          -0.6407    7.5233    2.8042 C.3     1  UNL1        0.0000
     33 H          -0.0931    7.0914    1.9640 H       1  UNL1        0.0000
     34 H          -1.5912    7.9069    2.4257 H       1  UNL1        0.0000
     35 C           0.1782    8.6593    3.4096 C.3     1  UNL1        0.0000
     36 H          -0.3937    9.1287    4.2142 H       1  UNL1        0.0000
     37 H           0.3766    9.4211    2.6526 H       1  UNL1        0.0000
     38 C           1.4957    8.1313    3.9670 C.3     1  UNL1        0.0000
     39 H           2.0980    7.6970    3.1606 H       1  UNL1        0.0000
     40 H           2.0757    8.9437    4.4108 H       1  UNL1        0.0000
     41 C           1.6227    3.6199    7.2992 C.3     1  UNL1        0.0000
     42 H           0.8708    3.2168    6.6271 H       1  UNL1        0.0000
     43 H           1.9055    2.8230    7.9814 H       1  UNL1        0.0000
     44 H           2.4940    3.8826    6.7063 H       1  UNL1        0.0000
     45 C          -0.8876    5.3505    7.9077 C.3     1  UNL1        0.0000
     46 H          -1.3748    5.8799    8.7187 H       1  UNL1        0.0000
     47 H          -1.3620    4.3765    7.8312 H       1  UNL1        0.0000
     48 H          -1.0971    5.8907    6.9912 H       1  UNL1        0.0000
     49 C           1.1849    4.8415   10.1181 C.3     1  UNL1        0.0000
     50 H           2.2152    4.6527   10.4039 H       1  UNL1        0.0000
     51 H           0.6002    3.9759   10.4137 H       1  UNL1        0.0000
     52 H           0.8273    5.6863   10.6974 H       1  UNL1        0.0000
     53 C           2.5301    9.5010    7.3155 C.3     1  UNL1        0.0000
     54 H           3.3851    9.1268    6.7594 H       1  UNL1        0.0000
     55 H           2.8678   10.3605    7.8877 H       1  UNL1        0.0000
     56 H           1.8030    9.8603    6.5932 H       1  UNL1        0.0000
     57 C          -0.0497    8.5720    8.7763 C.3     1  UNL1        0.0000
     58 H          -0.6695    8.4293    7.8979 H       1  UNL1        0.0000
     59 H          -0.1494    9.6081    9.0826 H       1  UNL1        0.0000
     60 H          -0.4574    7.9589    9.5722 H       1  UNL1        0.0000
     61 C           2.6665    8.2848   10.1606 C.3     1  UNL1        0.0000
     62 H           2.5032    7.4021   10.7701 H       1  UNL1        0.0000
     63 H           2.2821    9.1365   10.7141 H       1  UNL1        0.0000
     64 H           3.7377    8.4242   10.0586 H       1  UNL1        0.0000
@<TRIPOS>BOND
     1    33    32    1
     2    34    32    1
     3    37    35    1
     4    32    35    1
     5    32    29    1
     6    39    38    1
     7    31    29    1
     8    35    38    1
     9    35    36    1
    10    28    26    1
    11    29    26    1
    12    29    30    1
    13    38    40    1
    14    38    24    1
    15    26    24    1
    16    26    27    1
    17    24     4    1
    18    24    25    1
    19     4     6    1
    20    56    53    1
    21    42    41    1
    22    44    41    1
    23     6     3    1
    24     6     5    1
    25    54    53    1
    26     3     7    1
    27    48    45    1
    28    41    43    1
    29    41     1    1
    30    53    55    1
    31    53     2    1
    32    10     9    1
    33    22    21    1
    34     5     1    1
    35     5     2    1
    36    47    45    1
    37    58    57    1
    38    45     1    1
    39    45    46    1
    40     1    49    1
    41     7     9    1
    42     7    21    1
    43     7     8    1
    44    23    21    1
    45    11     9    1
    46     2    57    1
    47     2    61    1
    48     9    12    1
    49    21    18    1
    50    57    59    1
    51    57    60    1
    52    16    15    1
    53    12    14    1
    54    12    15    1
    55    12    13    1
    56    18    20    1
    57    18    15    1
    58    18    19    1
    59    64    61    1
    60    15    17    1
    61    49    50    1
    62    49    51    1
    63    49    52    1
    64    61    63    1
    65    61    62    1
