@<TRIPOS>MOLECULE
1,3
 40 40 0 0 0
SMALL
GASTEIGER

@<TRIPOS>ATOM
      1 N          -2.4344    6.2469   15.5354 N.3     1  UNL1        0.0000
      2 C          -2.5798    6.0801   14.2341 C.3     1  UNL1        0.0000
      3 N          -1.9563    6.9093   13.4265 N.3     1  UNL1        0.0000
      4 C          -3.4223    4.9744   13.7225 C.ar    1  UNL1        0.0000
      5 C          -2.9675    3.6652   13.8187 C.ar    1  UNL1        0.0000
      6 H          -1.9954    3.4753   14.2494 H       1  UNL1        0.0000
      7 C          -3.7491    2.6229   13.3536 C.ar    1  UNL1        0.0000
      8 H          -3.3889    1.6067   13.4227 H       1  UNL1        0.0000
      9 C          -4.9933    2.8794   12.8016 C.ar    1  UNL1        0.0000
     10 H          -5.6048    2.0643   12.4434 H       1  UNL1        0.0000
     11 C          -5.4521    4.1830   12.7098 C.ar    1  UNL1        0.0000
     12 H          -6.4236    4.3844   12.2824 H       1  UNL1        0.0000
     13 C          -4.6678    5.2282   13.1636 C.ar    1  UNL1        0.0000
     14 H          -5.0198    6.2465   13.0976 H       1  UNL1        0.0000
     15 SI         -3.3827    5.5561   16.8082 Si      1  UNL1        0.0000
     16 C          -2.5410    4.0274   17.5932 C.3     1  UNL1        0.0000
     17 H          -2.4247    3.2172   16.8802 H       1  UNL1        0.0000
     18 H          -3.1410    3.6532   18.4164 H       1  UNL1        0.0000
     19 H          -1.5585    4.2670   17.9859 H       1  UNL1        0.0000
     20 C          -3.4856    6.9734   18.0888 C.3     1  UNL1        0.0000
     21 H          -3.4080    6.5945   19.1021 H       1  UNL1        0.0000
     22 H          -4.4275    7.5081   18.0189 H       1  UNL1        0.0000
     23 H          -2.6825    7.6898   17.9274 H       1  UNL1        0.0000
     24 C          -5.1759    5.0447   16.3773 C.3     1  UNL1        0.0000
     25 H          -5.7505    4.8974   17.2865 H       1  UNL1        0.0000
     26 H          -5.2114    4.1182   15.8137 H       1  UNL1        0.0000
     27 H          -5.6818    5.8045   15.7900 H       1  UNL1        0.0000
     28 SI         -1.9779    6.8979   11.6963 Si      1  UNL1        0.0000
     29 C          -0.2914    7.5676   11.1097 C.3     1  UNL1        0.0000
     30 H          -0.3637    7.9523   10.0974 H       1  UNL1        0.0000
     31 H           0.4596    6.7847   11.1097 H       1  UNL1        0.0000
     32 H           0.0616    8.3704   11.7473 H       1  UNL1        0.0000
     33 C          -2.2199    5.2059   10.8284 C.3     1  UNL1        0.0000
     34 H          -1.8739    5.2592    9.8003 H       1  UNL1        0.0000
     35 H          -3.2615    4.9028   10.8076 H       1  UNL1        0.0000
     36 H          -1.6647    4.4121   11.3192 H       1  UNL1        0.0000
     37 C          -3.3442    8.0698   11.0311 C.3     1  UNL1        0.0000
     38 H          -3.3583    8.0461    9.9459 H       1  UNL1        0.0000
     39 H          -3.1740    9.0999   11.3290 H       1  UNL1        0.0000
     40 H          -4.3346    7.7857   11.3731 H       1  UNL1        0.0000
@<TRIPOS>BOND
     1    34    33    1
     2    38    37    1
     3    30    29    1
     4    35    33    1
     5    33    36    1
     6    33    28    1
     7    37    39    1
     8    37    40    1
     9    37    28    1
    10    31    29    1
    11    29    28    1
    12    29    32    1
    13    28     3    1
    14    12    11    1
    15    10     9    1
    16    11     9   ar
    17    11    13   ar
    18     9     7   ar
    19    14    13    1
    20    13     4   ar
    21     7     8    1
    22     7     5   ar
    23     3     2    1
    24     4     5   ar
    25     4     2    1
    26     5     6    1
    27     2     1    1
    28     1    15    1
    29    27    24    1
    30    26    24    1
    31    24    15    1
    32    24    25    1
    33    15    16    1
    34    15    20    1
    35    17    16    1
    36    16    19    1
    37    16    18    1
    38    23    20    1
    39    22    20    1
    40    20    21    1
