@<TRIPOS>MOLECULE
1,3
 40 40 0 0 0
SMALL
GASTEIGER

@<TRIPOS>ATOM
      1 N           0.8954    6.9557   14.4118 N.3     1  UNL1        0.0000
      2 C           1.3757    8.1315   14.0807 C.3     1  UNL1        0.0000
      3 N           0.5628    9.1657   14.1732 N.3     1  UNL1        0.0000
      4 C           2.7951    8.2973   13.6884 C.ar    1  UNL1        0.0000
      5 C           3.6627    8.9278   14.5727 C.ar    1  UNL1        0.0000
      6 H           3.2773    9.3011   15.5102 H       1  UNL1        0.0000
      7 C           5.0018    9.0660   14.2556 C.ar    1  UNL1        0.0000
      8 H           5.6734    9.5488   14.9505 H       1  UNL1        0.0000
      9 C           5.4819    8.5897   13.0467 C.ar    1  UNL1        0.0000
     10 H           6.5266    8.7027   12.7967 H       1  UNL1        0.0000
     11 C           4.6190    7.9688   12.1594 C.ar    1  UNL1        0.0000
     12 H           4.9907    7.6003   11.2142 H       1  UNL1        0.0000
     13 C           3.2822    7.8147   12.4815 C.ar    1  UNL1        0.0000
     14 H           2.6077    7.3289   11.7940 H       1  UNL1        0.0000
     15 SI          1.6553    5.4148   14.4977 Si      1  UNL1        0.0000
     16 C           0.6488    4.5658   15.8851 C.3     1  UNL1        0.0000
     17 H           1.1295    4.6651   16.8536 H       1  UNL1        0.0000
     18 H           0.5185    3.5040   15.7013 H       1  UNL1        0.0000
     19 H          -0.3366    5.0277   15.9541 H       1  UNL1        0.0000
     20 C           1.4251    4.4415   12.8657 C.3     1  UNL1        0.0000
     21 H           1.6317    3.3859   13.0125 H       1  UNL1        0.0000
     22 H           2.0903    4.7951   12.0838 H       1  UNL1        0.0000
     23 H           0.4061    4.5346   12.5023 H       1  UNL1        0.0000
     24 C           3.5095    5.3834   14.9715 C.3     1  UNL1        0.0000
     25 H           4.1425    5.6879   14.1445 H       1  UNL1        0.0000
     26 H           3.8144    4.3852   15.2693 H       1  UNL1        0.0000
     27 H           3.7168    6.0527   15.8010 H       1  UNL1        0.0000
     28 SI          0.7565   10.7623   13.5453 Si      1  UNL1        0.0000
     29 C           2.2240   11.1060   12.3677 C.3     1  UNL1        0.0000
     30 H           2.1166   12.0840   11.9086 H       1  UNL1        0.0000
     31 H           2.2759   10.3720   11.5694 H       1  UNL1        0.0000
     32 H           3.1772   11.0892   12.8857 H       1  UNL1        0.0000
     33 C          -0.8503   11.0713   12.5454 C.3     1  UNL1        0.0000
     34 H          -1.2684   12.0498   12.7577 H       1  UNL1        0.0000
     35 H          -1.5992   10.3223   12.7924 H       1  UNL1        0.0000
     36 H          -0.6735   11.0217   11.4751 H       1  UNL1        0.0000
     37 C           0.8777   11.9904   15.0078 C.3     1  UNL1        0.0000
     38 H           0.8160   13.0140   14.6534 H       1  UNL1        0.0000
     39 H           1.8170   11.8888   15.5431 H       1  UNL1        0.0000
     40 H           0.0721   11.8359   15.7191 H       1  UNL1        0.0000
@<TRIPOS>BOND
     1    12    11    1
     2    36    33    1
     3    31    29    1
     4    14    13    1
     5    30    29    1
     6    22    20    1
     7    11    13   ar
     8    11     9   ar
     9    29    32    1
    10    29    28    1
    11    13     4   ar
    12    23    20    1
    13    33    34    1
    14    33    35    1
    15    33    28    1
    16    10     9    1
    17    20    21    1
    18    20    15    1
    19     9     7   ar
    20    28     3    1
    21    28    37    1
    22     4     2    1
    23     4     5   ar
    24     2     3    1
    25     2     1    1
    26    25    24    1
    27     7     5   ar
    28     7     8    1
    29     1    15    1
    30    15    24    1
    31    15    16    1
    32     5     6    1
    33    38    37    1
    34    24    26    1
    35    24    27    1
    36    37    39    1
    37    37    40    1
    38    18    16    1
    39    16    19    1
    40    16    17    1
