@<TRIPOS>MOLECULE
4,8
 34 35 0 0 0
SMALL
GASTEIGER

@<TRIPOS>ATOM
      1 SI         14.5191    0.7613   -0.8407 Si      1  UNL1        0.0000
      2 C          22.5010    7.4468   -2.7773 C.3     1  UNL1        0.0000
      3 H          23.4578    7.0005   -3.0164 H       1  UNL1        0.0000
      4 N          21.4976    6.6044   -2.5536 N.pl3   1  UNL1        0.0000
      5 C          17.3975    4.1355   -1.5024 C.2     1  UNL1        0.0000
      6 C          17.9273    6.4591   -1.6465 C.2     1  UNL1        0.0000
      7 H          17.6320    7.4934   -1.5831 H       1  UNL1        0.0000
      8 N          19.6171    4.8265   -2.0774 N.pl3   1  UNL1        0.0000
      9 C          16.4960    3.0737   -1.2793 C.1     1  UNL1        0.0000
     10 C          22.3640    8.8214   -2.7199 C.2     1  UNL1        0.0000
     11 H          23.2100    9.4576   -2.9224 H       1  UNL1        0.0000
     12 C          16.9953    5.4717   -1.4152 C.2     1  UNL1        0.0000
     13 H          15.9722    5.7157   -1.1730 H       1  UNL1        0.0000
     14 C          15.7114    2.1716   -1.0963 C.1     1  UNL1        0.0000
     15 C          20.2887    7.1060   -2.2381 C.2     1  UNL1        0.0000
     16 C          18.7278    3.8759   -1.8352 C.3     1  UNL1        0.0000
     17 H          19.0700    2.8514   -1.9100 H       1  UNL1        0.0000
     18 C          19.2391    6.1162   -1.9802 C.2     1  UNL1        0.0000
     19 C          13.1978    0.8799   -2.2076 C.3     1  UNL1        0.0000
     20 H          12.6562    1.8198   -2.1548 H       1  UNL1        0.0000
     21 H          12.4712    0.0767   -2.1242 H       1  UNL1        0.0000
     22 H          13.6471    0.8156   -3.1940 H       1  UNL1        0.0000
     23 C          15.5070   -0.8611   -0.9610 C.3     1  UNL1        0.0000
     24 H          14.8626   -1.7266   -0.8354 H       1  UNL1        0.0000
     25 H          16.2779   -0.9117   -0.1977 H       1  UNL1        0.0000
     26 H          15.9959   -0.9527   -1.9263 H       1  UNL1        0.0000
     27 C          13.7432    0.9777    0.8864 C.3     1  UNL1        0.0000
     28 H          13.2160    1.9236    0.9684 H       1  UNL1        0.0000
     29 H          14.5005    0.9556    1.6645 H       1  UNL1        0.0000
     30 H          13.0310    0.1856    1.0988 H       1  UNL1        0.0000
     31 C          21.1202    9.3508   -2.4099 C.2     1  UNL1        0.0000
     32 H          20.9666   10.4182   -2.3660 H       1  UNL1        0.0000
     33 C          20.0765    8.4825   -2.1573 C.2     1  UNL1        0.0000
     34 H          19.1029    8.8733   -1.9119 H       1  UNL1        0.0000
@<TRIPOS>BOND
     1    22    19    1
     2     3     2    1
     3    11    10    1
     4     2    10    1
     5     2     4    1
     6    10    31    2
     7     4    15    1
     8    31    32    1
     9    31    33    1
    10    15    33    2
    11    15    18    1
    12    19    20    1
    13    19    21    1
    14    19     1    1
    15    33    34    1
    16     8    18    1
    17     8    16    1
    18    18     6    2
    19    26    23    1
    20    17    16    1
    21    16     5    1
    22     6     7    1
    23     6    12    1
    24     5    12    2
    25     5     9    1
    26    12    13    1
    27     9    14    3
    28    14     1    1
    29    23     1    1
    30    23    24    1
    31    23    25    1
    32     1    27    1
    33    27    28    1
    34    27    30    1
    35    27    29    1
