@<TRIPOS>MOLECULE
2,3
 36 36 0 0 0
SMALL
GASTEIGER

@<TRIPOS>ATOM
      1 SI         12.0686    8.8929   10.0332 Si      1  UNL1        0.0000
      2 N          12.8456   11.3015   13.0238 N.pl3   1  UNL1        0.0000
      3 N          12.4423   10.0978   11.2035 N.3     1  UNL1        0.0000
      4 N          14.0525    9.2833   12.7649 N.3     1  UNL1        0.0000
      5 C          13.7180   11.9671   13.8613 C.ar    1  UNL1        0.0000
      6 C          13.1932   12.6814   14.9474 C.ar    1  UNL1        0.0000
      7 H          12.1279   12.6329   15.1266 H       1  UNL1        0.0000
      8 C          14.0137   13.4302   15.7658 C.ar    1  UNL1        0.0000
      9 H          13.5887   13.9726   16.5992 H       1  UNL1        0.0000
     10 C          15.3793   13.4853   15.5331 C.ar    1  UNL1        0.0000
     11 H          16.0193   14.0717   16.1753 H       1  UNL1        0.0000
     12 C          15.9130   12.7824   14.4654 C.ar    1  UNL1        0.0000
     13 H          16.9758   12.8250   14.2718 H       1  UNL1        0.0000
     14 C          15.1012   12.0321   13.6382 C.ar    1  UNL1        0.0000
     15 H          15.5254   11.5077   12.7947 H       1  UNL1        0.0000
     16 C          13.1437   10.2070   12.3179 C.3     1  UNL1        0.0000
     17 C          14.3607    9.1184   14.1639 C.3     1  UNL1        0.0000
     18 H          13.6302    9.6413   14.7731 H       1  UNL1        0.0000
     19 H          15.3604    9.4960   14.4084 H       1  UNL1        0.0000
     20 H          14.3201    8.0519   14.4046 H       1  UNL1        0.0000
     21 C          14.8509    8.4681   11.8876 C.3     1  UNL1        0.0000
     22 H          14.6688    8.7514   10.8572 H       1  UNL1        0.0000
     23 H          14.6236    7.4069   12.0160 H       1  UNL1        0.0000
     24 H          15.9104    8.6253   12.1199 H       1  UNL1        0.0000
     25 C          12.0929    7.0936   10.7084 C.3     1  UNL1        0.0000
     26 H          12.0033    7.0729   11.7896 H       1  UNL1        0.0000
     27 H          13.0049    6.5752   10.4340 H       1  UNL1        0.0000
     28 H          11.2666    6.5208   10.3025 H       1  UNL1        0.0000
     29 C          13.2300    9.0162    8.5077 C.3     1  UNL1        0.0000
     30 H          14.2657    8.7619    8.7138 H       1  UNL1        0.0000
     31 H          13.2036   10.0289    8.1152 H       1  UNL1        0.0000
     32 H          12.8863    8.3488    7.7240 H       1  UNL1        0.0000
     33 C          10.3004    9.2599    9.3924 C.3     1  UNL1        0.0000
     34 H           9.8505   10.0801    9.9512 H       1  UNL1        0.0000
     35 H           9.6476    8.3941    9.4556 H       1  UNL1        0.0000
     36 H          10.3377    9.5668    8.3523 H       1  UNL1        0.0000
@<TRIPOS>BOND
     1    32    29    1
     2    31    29    1
     3    36    33    1
     4    29    30    1
     5    29     1    1
     6    33    35    1
     7    33    34    1
     8    33     1    1
     9     1    25    1
    10     1     3    1
    11    28    25    1
    12    27    25    1
    13    25    26    1
    14    22    21    1
    15     3    16    1
    16    21    23    1
    17    21    24    1
    18    21     4    1
    19    16     4    1
    20    16     2    1
    21     4    17    1
    22    15    14    1
    23     2     5    1
    24    14     5   ar
    25    14    12   ar
    26     5     6   ar
    27    17    20    1
    28    17    19    1
    29    17    18    1
    30    13    12    1
    31    12    10   ar
    32     6     7    1
    33     6     8   ar
    34    10     8   ar
    35    10    11    1
    36     8     9    1
