@<TRIPOS>MOLECULE
2,3
 36 36 0 0 0
SMALL
GASTEIGER

@<TRIPOS>ATOM
      1 SI         13.9996   14.1403   10.6713 Si      1  UNL1        0.0000
      2 N          10.8984   13.5575   12.9903 N.pl3   1  UNL1        0.0000
      3 N          12.5263   13.8424   11.5092 N.3     1  UNL1        0.0000
      4 N          12.0680   15.6138   13.0401 N.3     1  UNL1        0.0000
      5 C           9.7213   13.9648   13.5852 C.ar    1  UNL1        0.0000
      6 C           9.1334   13.1341   14.5492 C.ar    1  UNL1        0.0000
      7 H           9.6561   12.2321   14.8369 H       1  UNL1        0.0000
      8 C           7.9169   13.4564   15.1148 C.ar    1  UNL1        0.0000
      9 H           7.4818   12.8031   15.8588 H       1  UNL1        0.0000
     10 C           7.2526   14.6150   14.7431 C.ar    1  UNL1        0.0000
     11 H           6.3008   14.8650   15.1875 H       1  UNL1        0.0000
     12 C           7.8217   15.4465   13.7924 C.ar    1  UNL1        0.0000
     13 H           7.3072   16.3479   13.4900 H       1  UNL1        0.0000
     14 C           9.0377   15.1332   13.2182 C.ar    1  UNL1        0.0000
     15 H           9.4599   15.7760   12.4600 H       1  UNL1        0.0000
     16 C          11.8356   14.3744   12.5023 C.3     1  UNL1        0.0000
     17 C          11.7355   15.9366   14.4054 C.3     1  UNL1        0.0000
     18 H          11.5209   15.0303   14.9630 H       1  UNL1        0.0000
     19 H          10.8680   16.6041   14.4677 H       1  UNL1        0.0000
     20 H          12.5952   16.4351   14.8628 H       1  UNL1        0.0000
     21 C          12.5563   16.7299   12.2734 C.3     1  UNL1        0.0000
     22 H          12.6391   16.4490   11.2296 H       1  UNL1        0.0000
     23 H          13.5315   17.0640   12.6360 H       1  UNL1        0.0000
     24 H          11.8496   17.5626   12.3646 H       1  UNL1        0.0000
     25 C          13.7025   15.1273    9.0499 C.3     1  UNL1        0.0000
     26 H          12.9434   14.6259    8.4558 H       1  UNL1        0.0000
     27 H          14.6144   15.1585    8.4623 H       1  UNL1        0.0000
     28 H          13.3855   16.1547    9.2046 H       1  UNL1        0.0000
     29 C          15.3378   15.0332   11.7228 C.3     1  UNL1        0.0000
     30 H          15.4106   16.0846   11.4675 H       1  UNL1        0.0000
     31 H          16.3155   14.5959   11.5538 H       1  UNL1        0.0000
     32 H          15.1263   14.9560   12.7844 H       1  UNL1        0.0000
     33 C          14.6960   12.4366   10.1376 C.3     1  UNL1        0.0000
     34 H          14.6477   12.3369    9.0579 H       1  UNL1        0.0000
     35 H          14.0996   11.6279   10.5593 H       1  UNL1        0.0000
     36 H          15.7320   12.2994   10.4339 H       1  UNL1        0.0000
@<TRIPOS>BOND
     1    26    25    1
     2    27    25    1
     3    25    28    1
     4    25     1    1
     5    34    33    1
     6    33    36    1
     7    33    35    1
     8    33     1    1
     9     1     3    1
    10     1    29    1
    11    22    21    1
    12    30    29    1
    13     3    16    1
    14    31    29    1
    15    29    32    1
    16    21    24    1
    17    21    23    1
    18    21     4    1
    19    15    14    1
    20    16     2    1
    21    16     4    1
    22     2     5    1
    23     4    17    1
    24    14     5   ar
    25    14    12   ar
    26    13    12    1
    27     5     6   ar
    28    12    10   ar
    29    17    19    1
    30    17    20    1
    31    17    18    1
    32     6     7    1
    33     6     8   ar
    34    10     8   ar
    35    10    11    1
    36     8     9    1
