@<TRIPOS>MOLECULE
2,3
 36 36 0 0 0
SMALL
GASTEIGER

@<TRIPOS>ATOM
      1 SI          8.5003   13.2401    9.9722 Si      1  UNL1        0.0000
      2 N           9.9288   10.7607   12.6496 N.pl3   1  UNL1        0.0000
      3 N           9.2544   12.0859   11.0021 N.3     1  UNL1        0.0000
      4 N           7.6145   10.7969   12.1620 N.3     1  UNL1        0.0000
      5 C          10.0037    9.5174   13.2442 C.ar    1  UNL1        0.0000
      6 C          10.7805    9.3736   14.4023 C.ar    1  UNL1        0.0000
      7 H          11.2412   10.2569   14.8234 H       1  UNL1        0.0000
      8 C          10.9564    8.1371   14.9884 C.ar    1  UNL1        0.0000
      9 H          11.5588    8.0482   15.8821 H       1  UNL1        0.0000
     10 C          10.3603    7.0094   14.4453 C.ar    1  UNL1        0.0000
     11 H          10.4993    6.0428   14.9060 H       1  UNL1        0.0000
     12 C           9.5870    7.1362   13.3028 C.ar    1  UNL1        0.0000
     13 H           9.1240    6.2614   12.8679 H       1  UNL1        0.0000
     14 C           9.4064    8.3680   12.7062 C.ar    1  UNL1        0.0000
     15 H           8.8212    8.4505   11.8022 H       1  UNL1        0.0000
     16 C           8.9011   11.2022   11.9186 C.3     1  UNL1        0.0000
     17 C           7.1870   10.3247   13.4557 C.3     1  UNL1        0.0000
     18 H           7.9396   10.5507   14.2045 H       1  UNL1        0.0000
     19 H           7.0023    9.2442   13.4542 H       1  UNL1        0.0000
     20 H           6.2593   10.8390   13.7238 H       1  UNL1        0.0000
     21 C           6.6010   10.7180   11.1431 C.3     1  UNL1        0.0000
     22 H           7.0351   10.9450   10.1760 H       1  UNL1        0.0000
     23 H           5.7814   11.4126   11.3431 H       1  UNL1        0.0000
     24 H           6.1947    9.7004   11.1226 H       1  UNL1        0.0000
     25 C           9.7379   14.6854    9.7448 C.3     1  UNL1        0.0000
     26 H          10.1004   14.7086    8.7224 H       1  UNL1        0.0000
     27 H          10.6072   14.5524   10.3876 H       1  UNL1        0.0000
     28 H           9.2912   15.6522    9.9564 H       1  UNL1        0.0000
     29 C           8.1912   12.5177    8.2188 C.3     1  UNL1        0.0000
     30 H           9.1180   12.1075    7.8276 H       1  UNL1        0.0000
     31 H           7.8681   13.3044    7.5447 H       1  UNL1        0.0000
     32 H           7.4364   11.7374    8.1852 H       1  UNL1        0.0000
     33 C           6.8583   13.9674   10.6576 C.3     1  UNL1        0.0000
     34 H           6.7703   13.8127   11.7279 H       1  UNL1        0.0000
     35 H           5.9932   13.5228   10.1786 H       1  UNL1        0.0000
     36 H           6.8074   15.0355   10.4785 H       1  UNL1        0.0000
@<TRIPOS>BOND
     1    31    29    1
     2    30    29    1
     3    32    29    1
     4    29     1    1
     5    26    25    1
     6    25    28    1
     7    25     1    1
     8    25    27    1
     9     1    33    1
    10     1     3    1
    11    22    21    1
    12    35    33    1
    13    36    33    1
    14    33    34    1
    15     3    16    1
    16    24    21    1
    17    21    23    1
    18    21     4    1
    19    15    14    1
    20    16     4    1
    21    16     2    1
    22     4    17    1
    23     2     5    1
    24    14     5   ar
    25    14    12   ar
    26    13    12    1
    27     5     6   ar
    28    12    10   ar
    29    19    17    1
    30    17    20    1
    31    17    18    1
    32     6     7    1
    33     6     8   ar
    34    10    11    1
    35    10     8   ar
    36     8     9    1
