@<TRIPOS>MOLECULE
2,4
 36 36 0 0 0
SMALL
GASTEIGER

@<TRIPOS>ATOM
      1 SI         13.9290   14.1701   10.6720 Si      1  UNL1        0.0000
      2 N          10.7951   13.5679   12.9363 N.pl3   1  UNL1        0.0000
      3 N          12.0018   15.6046   12.9933 N.3     1  UNL1        0.0000
      4 N          12.4192   13.8424   11.4470 N.3     1  UNL1        0.0000
      5 C           9.6414   13.9978   13.5699 C.ar    1  UNL1        0.0000
      6 C           9.0620   13.1720   14.5400 C.ar    1  UNL1        0.0000
      7 H           9.5714   12.2577   14.8077 H       1  UNL1        0.0000
      8 C           7.8658   13.5129   15.1375 C.ar    1  UNL1        0.0000
      9 H           7.4359   12.8618   15.8862 H       1  UNL1        0.0000
     10 C           7.2157   14.6863   14.7893 C.ar    1  UNL1        0.0000
     11 H           6.2798   14.9517   15.2581 H       1  UNL1        0.0000
     12 C           7.7762   15.5118   13.8286 C.ar    1  UNL1        0.0000
     13 H           7.2712   16.4239   13.5426 H       1  UNL1        0.0000
     14 C           8.9714   15.1781   13.2231 C.ar    1  UNL1        0.0000
     15 H           9.3853   15.8144   12.4554 H       1  UNL1        0.0000
     16 C          11.7398   14.3764   12.4504 C.3     1  UNL1        0.0000
     17 C          11.6974   15.9206   14.3667 C.3     1  UNL1        0.0000
     18 H          11.5185   15.0094   14.9285 H       1  UNL1        0.0000
     19 H          10.8191   16.5707   14.4555 H       1  UNL1        0.0000
     20 H          12.5600   16.4358   14.7992 H       1  UNL1        0.0000
     21 C          12.4088   16.7389   12.2051 C.3     1  UNL1        0.0000
     22 H          12.4719   16.4550   11.1612 H       1  UNL1        0.0000
     23 H          13.3772   17.1210   12.5358 H       1  UNL1        0.0000
     24 H          11.6662   17.5381   12.3142 H       1  UNL1        0.0000
     25 C          13.6838   15.1830    9.0621 C.3     1  UNL1        0.0000
     26 H          13.3997   16.2188    9.2228 H       1  UNL1        0.0000
     27 H          12.9194   14.7130    8.4500 H       1  UNL1        0.0000
     28 H          14.6055   15.1898    8.4893 H       1  UNL1        0.0000
     29 C          15.2033   15.0361   11.8147 C.3     1  UNL1        0.0000
     30 H          15.3148   16.0848   11.5625 H       1  UNL1        0.0000
     31 H          16.1815   14.5788   11.7157 H       1  UNL1        0.0000
     32 H          14.9161   14.9665   12.8587 H       1  UNL1        0.0000
     33 C          14.6472   12.4838   10.1258 C.3     1  UNL1        0.0000
     34 H          14.6249   12.4006    9.0445 H       1  UNL1        0.0000
     35 H          14.0507   11.6636   10.5188 H       1  UNL1        0.0000
     36 H          15.6761   12.3476   10.4454 H       1  UNL1        0.0000
@<TRIPOS>BOND
     1    27    25    1
     2    28    25    1
     3    34    33    1
     4    25    26    1
     5    25     1    1
     6    33    36    1
     7    33    35    1
     8    33     1    1
     9     1     4    1
    10     1    29    1
    11    22    21    1
    12     4    16    1
    13    30    29    1
    14    31    29    1
    15    29    32    1
    16    21    24    1
    17    21    23    1
    18    21     3    1
    19    16     2    1
    20    16     3    1
    21    15    14    1
    22     2     5    1
    23     3    17    1
    24    14     5   ar
    25    14    12   ar
    26    13    12    1
    27     5     6   ar
    28    12    10   ar
    29    17    19    1
    30    17    20    1
    31    17    18    1
    32     6     7    1
    33     6     8   ar
    34    10     8   ar
    35    10    11    1
    36     8     9    1
