@<TRIPOS>MOLECULE
1,2
 43 44 0 0 0
SMALL
GASTEIGER

@<TRIPOS>ATOM
      1 N           8.8842    3.4559    9.6810 N.pl3   1  UNL1        0.0000
      2 N           6.8444    3.9809    8.9966 N.3     1  UNL1        0.0000
      3 N           7.1781    3.6123   11.3309 N.3     1  UNL1        0.0000
      4 SI          5.1505    4.1130    8.6860 Si      1  UNL1        0.0000
      5 C           7.6222    3.7156   10.0344 C.3     1  UNL1        0.0000
      6 C           9.9991    3.6710   10.4719 C.ar    1  UNL1        0.0000
      7 C          10.1127    4.7557   11.3510 C.ar    1  UNL1        0.0000
      8 H           9.2840    5.4408   11.4529 H       1  UNL1        0.0000
      9 C          11.2808    4.9713   12.0556 C.ar    1  UNL1        0.0000
     10 H          11.3496    5.8160   12.7268 H       1  UNL1        0.0000
     11 C          12.3641    4.1221   11.9037 C.ar    1  UNL1        0.0000
     12 H          13.2756    4.2960   12.4562 H       1  UNL1        0.0000
     13 C          12.2682    3.0503   11.0300 C.ar    1  UNL1        0.0000
     14 H          13.1086    2.3815   10.9047 H       1  UNL1        0.0000
     15 C          11.1044    2.8252   10.3239 C.ar    1  UNL1        0.0000
     16 H          11.0273    1.9921    9.6411 H       1  UNL1        0.0000
     17 C           7.9290    2.8604   12.3156 C.3     1  UNL1        0.0000
     18 H           8.5957    3.5161   12.8964 H       1  UNL1        0.0000
     19 H           8.5373    2.1189   11.7997 H       1  UNL1        0.0000
     20 C           6.9596    2.1677   13.2712 C.3     1  UNL1        0.0000
     21 H           7.5299    1.5803   13.9926 H       1  UNL1        0.0000
     22 H           6.3192    1.4913   12.7027 H       1  UNL1        0.0000
     23 C           6.1063    3.2115   13.9815 C.3     1  UNL1        0.0000
     24 H           5.4039    2.7315   14.6651 H       1  UNL1        0.0000
     25 H           6.7509    3.8710   14.5679 H       1  UNL1        0.0000
     26 C           5.3515    4.0202   12.9323 C.3     1  UNL1        0.0000
     27 H           4.7857    4.8271   13.4013 H       1  UNL1        0.0000
     28 H           4.6525    3.3649   12.4167 H       1  UNL1        0.0000
     29 C           6.3252    4.6222   11.9219 C.3     1  UNL1        0.0000
     30 H           5.7860    5.1303   11.1263 H       1  UNL1        0.0000
     31 H           6.9582    5.3605   12.4437 H       1  UNL1        0.0000
     32 C           4.5705    5.9383    8.7798 C.3     1  UNL1        0.0000
     33 H           5.1634    6.5419    8.0991 H       1  UNL1        0.0000
     34 H           4.6442    6.3791    9.7697 H       1  UNL1        0.0000
     35 H           3.5329    6.0128    8.4704 H       1  UNL1        0.0000
     36 C           4.0415    3.0210    9.8055 C.3     1  UNL1        0.0000
     37 H           4.6227    2.2805   10.3443 H       1  UNL1        0.0000
     38 H           3.3049    2.4888    9.2136 H       1  UNL1        0.0000
     39 H           3.4962    3.6227   10.5238 H       1  UNL1        0.0000
     40 C           4.8657    3.5480    6.8800 C.3     1  UNL1        0.0000
     41 H           4.5877    4.3952    6.2626 H       1  UNL1        0.0000
     42 H           4.0759    2.8070    6.7956 H       1  UNL1        0.0000
     43 H           5.7763    3.1317    6.4551 H       1  UNL1        0.0000
@<TRIPOS>BOND
     1    41    40    1
     2    43    40    1
     3    42    40    1
     4    40     4    1
     5    33    32    1
     6    35    32    1
     7     4    32    1
     8     4     2    1
     9     4    36    1
    10    32    34    1
    11     2     5    1
    12    38    36    1
    13    16    15    1
    14     1     5    1
    15     1     6    1
    16    36    37    1
    17    36    39    1
    18     5     3    1
    19    15     6   ar
    20    15    13   ar
    21     6     7   ar
    22    14    13    1
    23    13    11   ar
    24    30    29    1
    25     3    29    1
    26     3    17    1
    27     7     8    1
    28     7     9   ar
    29    19    17    1
    30    11     9   ar
    31    11    12    1
    32    29    31    1
    33    29    26    1
    34     9    10    1
    35    17    18    1
    36    17    20    1
    37    28    26    1
    38    22    20    1
    39    26    27    1
    40    26    23    1
    41    20    23    1
    42    20    21    1
    43    23    25    1
    44    23    24    1
