@<TRIPOS>MOLECULE
1,2
 43 44 0 0 0
SMALL
GASTEIGER

@<TRIPOS>ATOM
      1 N           7.8961    1.5941    7.6008 N.pl3   1  UNL1        0.0000
      2 N           7.9563    2.7175    5.6902 N.3     1  UNL1        0.0000
      3 N           7.3522    0.4161    5.6050 N.3     1  UNL1        0.0000
      4 SI          8.2839    3.2233    4.0706 Si      1  UNL1        0.0000
      5 C           7.6985    1.5614    6.2828 C.3     1  UNL1        0.0000
      6 C           7.2538    0.7867    8.5242 C.ar    1  UNL1        0.0000
      7 C           7.9399    0.4001    9.6809 C.ar    1  UNL1        0.0000
      8 H           8.9740    0.6912    9.7905 H       1  UNL1        0.0000
      9 C           7.3108   -0.3339   10.6656 C.ar    1  UNL1        0.0000
     10 H           7.8610   -0.6268   11.5492 H       1  UNL1        0.0000
     11 C           5.9817   -0.7021   10.5272 C.ar    1  UNL1        0.0000
     12 H           5.4912   -1.2762   11.2993 H       1  UNL1        0.0000
     13 C           5.2878   -0.3200    9.3912 C.ar    1  UNL1        0.0000
     14 H           4.2476   -0.5924    9.2788 H       1  UNL1        0.0000
     15 C           5.9094    0.4146    8.4005 C.ar    1  UNL1        0.0000
     16 H           5.3525    0.7341    7.5324 H       1  UNL1        0.0000
     17 C           7.5844   -0.8921    6.1801 C.3     1  UNL1        0.0000
     18 H           6.6863   -1.2712    6.6918 H       1  UNL1        0.0000
     19 H           8.3909   -0.8172    6.9085 H       1  UNL1        0.0000
     20 C           7.9711   -1.8627    5.0654 C.3     1  UNL1        0.0000
     21 H           8.1736   -2.8435    5.4987 H       1  UNL1        0.0000
     22 H           8.8806   -1.5046    4.5798 H       1  UNL1        0.0000
     23 C           6.8416   -1.9505    4.0450 C.3     1  UNL1        0.0000
     24 H           7.1104   -2.6324    3.2363 H       1  UNL1        0.0000
     25 H           5.9440   -2.3411    4.5310 H       1  UNL1        0.0000
     26 C           6.5635   -0.5574    3.4889 C.3     1  UNL1        0.0000
     27 H           7.4296   -0.2168    2.9252 H       1  UNL1        0.0000
     28 H           5.7023   -0.5775    2.8188 H       1  UNL1        0.0000
     29 C           6.2837    0.4193    4.6280 C.3     1  UNL1        0.0000
     30 H           6.1628    1.4313    4.2497 H       1  UNL1        0.0000
     31 H           5.3462    0.1170    5.1258 H       1  UNL1        0.0000
     32 C           9.4594    4.7280    4.1956 C.3     1  UNL1        0.0000
     33 H           8.9170    5.6452    3.9929 H       1  UNL1        0.0000
     34 H          10.2814    4.6682    3.4881 H       1  UNL1        0.0000
     35 H           9.8723    4.8190    5.1982 H       1  UNL1        0.0000
     36 C           6.7084    3.8635    3.1843 C.3     1  UNL1        0.0000
     37 H           6.0197    3.0815    2.8795 H       1  UNL1        0.0000
     38 H           6.9913    4.4070    2.2888 H       1  UNL1        0.0000
     39 H           6.1756    4.5533    3.8316 H       1  UNL1        0.0000
     40 C           9.1386    1.8808    3.0018 C.3     1  UNL1        0.0000
     41 H          10.0740    2.2472    2.5938 H       1  UNL1        0.0000
     42 H           8.5147    1.5952    2.1619 H       1  UNL1        0.0000
     43 H           9.3646    0.9930    3.5827 H       1  UNL1        0.0000
@<TRIPOS>BOND
     1    42    40    1
     2    38    36    1
     3    41    40    1
     4    28    26    1
     5    37    36    1
     6    27    26    1
     7    40    43    1
     8    40     4    1
     9    36    39    1
    10    36     4    1
    11    24    23    1
    12    34    32    1
    13    26    23    1
    14    26    29    1
    15    33    32    1
    16    23    25    1
    17    23    20    1
    18     4    32    1
    19     4     2    1
    20    32    35    1
    21    30    29    1
    22    22    20    1
    23    29    31    1
    24    29     3    1
    25    20    21    1
    26    20    17    1
    27     3    17    1
    28     3     5    1
    29     2     5    1
    30    17    18    1
    31    17    19    1
    32     5     1    1
    33    16    15    1
    34     1     6    1
    35    15     6   ar
    36    15    13   ar
    37     6     7   ar
    38    14    13    1
    39    13    11   ar
    40     7     8    1
    41     7     9   ar
    42    11     9   ar
    43    11    12    1
    44     9    10    1
