@<TRIPOS>MOLECULE
1,2
 43 44 0 0 0
SMALL
GASTEIGER

@<TRIPOS>ATOM
      1 N          10.5074    3.0029    7.1992 N.pl3   1  UNL1        0.0000
      2 N          10.1049    5.1505    7.5653 N.3     1  UNL1        0.0000
      3 N          12.3739    4.4787    7.2830 N.3     1  UNL1        0.0000
      4 SI         10.0910    6.7791    8.1411 Si      1  UNL1        0.0000
      5 C          11.0226    4.2292    7.3184 C.3     1  UNL1        0.0000
      6 C          11.0570    1.9741    6.4537 C.ar    1  UNL1        0.0000
      7 C          10.8437    0.6542    6.8679 C.ar    1  UNL1        0.0000
      8 H          10.3118    0.4845    7.7921 H       1  UNL1        0.0000
      9 C          11.2954   -0.4080    6.1122 C.ar    1  UNL1        0.0000
     10 H          11.1202   -1.4197    6.4515 H       1  UNL1        0.0000
     11 C          11.9783   -0.1868    4.9265 C.ar    1  UNL1        0.0000
     12 H          12.3330   -1.0193    4.3372 H       1  UNL1        0.0000
     13 C          12.1944    1.1134    4.5023 C.ar    1  UNL1        0.0000
     14 H          12.7180    1.2961    3.5742 H       1  UNL1        0.0000
     15 C          11.7390    2.1828    5.2481 C.ar    1  UNL1        0.0000
     16 H          11.8823    3.1917    4.8905 H       1  UNL1        0.0000
     17 C          13.3353    3.4230    7.5247 C.3     1  UNL1        0.0000
     18 H          12.8569    2.6418    8.1138 H       1  UNL1        0.0000
     19 H          13.6904    2.9800    6.5816 H       1  UNL1        0.0000
     20 C          14.5298    3.9975    8.2842 C.3     1  UNL1        0.0000
     21 H          15.2404    3.1957    8.4912 H       1  UNL1        0.0000
     22 H          14.1851    4.4089    9.2344 H       1  UNL1        0.0000
     23 C          15.1856    5.0950    7.4543 C.3     1  UNL1        0.0000
     24 H          16.0373    5.5205    7.9879 H       1  UNL1        0.0000
     25 H          15.5528    4.6709    6.5164 H       1  UNL1        0.0000
     26 C          14.1517    6.1780    7.1642 C.3     1  UNL1        0.0000
     27 H          13.8636    6.6544    8.0989 H       1  UNL1        0.0000
     28 H          14.5685    6.9398    6.5032 H       1  UNL1        0.0000
     29 C          12.9179    5.5697    6.5020 C.3     1  UNL1        0.0000
     30 H          13.2085    5.1853    5.5090 H       1  UNL1        0.0000
     31 H          12.1427    6.3201    6.3682 H       1  UNL1        0.0000
     32 C          11.5289    7.2017    9.3365 C.3     1  UNL1        0.0000
     33 H          12.0913    6.3163    9.6129 H       1  UNL1        0.0000
     34 H          11.1526    7.6457   10.2515 H       1  UNL1        0.0000
     35 H          12.2090    7.9194    8.8908 H       1  UNL1        0.0000
     36 C          10.0475    8.0391    6.6963 C.3     1  UNL1        0.0000
     37 H          10.9796    8.1185    6.1446 H       1  UNL1        0.0000
     38 H           9.8180    9.0278    7.0805 H       1  UNL1        0.0000
     39 H           9.2622    7.7673    5.9973 H       1  UNL1        0.0000
     40 C           8.4494    7.0120    9.0960 C.3     1  UNL1        0.0000
     41 H           7.7640    7.6232    8.5189 H       1  UNL1        0.0000
     42 H           8.5950    7.4984   10.0563 H       1  UNL1        0.0000
     43 H           7.9569    6.0565    9.2639 H       1  UNL1        0.0000
@<TRIPOS>BOND
     1    14    13    1
     2    12    11    1
     3    13    11   ar
     4    13    15   ar
     5    16    15    1
     6    11     9   ar
     7    15     6   ar
     8    30    29    1
     9    39    36    1
    10     9    10    1
    11     9     7   ar
    12    37    36    1
    13    31    29    1
    14     6     7   ar
    15     6     1    1
    16    29    26    1
    17    29     3    1
    18    28    26    1
    19    25    23    1
    20    19    17    1
    21    36    38    1
    22    36     4    1
    23     7     8    1
    24    26    23    1
    25    26    27    1
    26     1     5    1
    27     3     5    1
    28     3    17    1
    29     5     2    1
    30    23    24    1
    31    23    20    1
    32    17    18    1
    33    17    20    1
    34     2     4    1
    35     4    40    1
    36     4    32    1
    37    20    21    1
    38    20    22    1
    39    41    40    1
    40    35    32    1
    41    40    43    1
    42    40    42    1
    43    32    33    1
    44    32    34    1
