@<TRIPOS>MOLECULE
2,4
 36 36 0 0 0
SMALL
GASTEIGER

@<TRIPOS>ATOM
      1 SI         12.0159    8.8506   10.0494 Si      1  UNL1        0.0000
      2 N          12.7687   11.3202   12.9896 N.pl3   1  UNL1        0.0000
      3 N          13.9593    9.2894   12.7343 N.3     1  UNL1        0.0000
      4 N          12.3801   10.1243   11.1594 N.3     1  UNL1        0.0000
      5 C          13.6331   11.9528   13.8673 C.ar    1  UNL1        0.0000
      6 C          13.0937   12.6432   14.9587 C.ar    1  UNL1        0.0000
      7 H          12.0256   12.6037   15.1154 H       1  UNL1        0.0000
      8 C          13.9047   13.3625   15.8126 C.ar    1  UNL1        0.0000
      9 H          13.4681   13.8875   16.6511 H       1  UNL1        0.0000
     10 C          15.2744   13.4110   15.6066 C.ar    1  UNL1        0.0000
     11 H          15.9074   13.9741   16.2760 H       1  UNL1        0.0000
     12 C          15.8215   12.7344   14.5290 C.ar    1  UNL1        0.0000
     13 H          16.8876   12.7748   14.3539 H       1  UNL1        0.0000
     14 C          15.0181   12.0141   13.6674 C.ar    1  UNL1        0.0000
     15 H          15.4514   11.5133   12.8148 H       1  UNL1        0.0000
     16 C          13.0694   10.2266   12.2854 C.3     1  UNL1        0.0000
     17 C          14.2436    9.1051   14.1357 C.3     1  UNL1        0.0000
     18 H          13.4814    9.5885   14.7383 H       1  UNL1        0.0000
     19 H          15.2245    9.5083   14.4138 H       1  UNL1        0.0000
     20 H          14.2323    8.0325   14.3497 H       1  UNL1        0.0000
     21 C          14.8297    8.5510   11.8563 C.3     1  UNL1        0.0000
     22 H          14.6538    8.8509   10.8299 H       1  UNL1        0.0000
     23 H          14.6653    7.4756   11.9529 H       1  UNL1        0.0000
     24 H          15.8723    8.7664   12.1183 H       1  UNL1        0.0000
     25 C          13.1755    8.9008    8.5228 C.3     1  UNL1        0.0000
     26 H          13.1838    9.9040    8.1061 H       1  UNL1        0.0000
     27 H          12.8027    8.2290    7.7564 H       1  UNL1        0.0000
     28 H          14.2019    8.6120    8.7294 H       1  UNL1        0.0000
     29 C          12.0432    7.1069   10.8478 C.3     1  UNL1        0.0000
     30 H          11.9982    7.1621   11.9305 H       1  UNL1        0.0000
     31 H          12.9368    6.5575   10.5730 H       1  UNL1        0.0000
     32 H          11.1940    6.5197   10.5165 H       1  UNL1        0.0000
     33 C          10.2554    9.1855    9.3814 C.3     1  UNL1        0.0000
     34 H           9.7894   10.0108    9.9151 H       1  UNL1        0.0000
     35 H           9.6100    8.3156    9.4581 H       1  UNL1        0.0000
     36 H          10.3003    9.4709    8.3359 H       1  UNL1        0.0000
@<TRIPOS>BOND
     1    27    25    1
     2    26    25    1
     3    36    33    1
     4    25    28    1
     5    25     1    1
     6    33    35    1
     7    33    34    1
     8    33     1    1
     9     1    29    1
    10     1     4    1
    11    32    29    1
    12    31    29    1
    13    22    21    1
    14    29    30    1
    15     4    16    1
    16    21    23    1
    17    21    24    1
    18    21     3    1
    19    16     3    1
    20    16     2    1
    21     3    17    1
    22    15    14    1
    23     2     5    1
    24    14     5   ar
    25    14    12   ar
    26     5     6   ar
    27    17    20    1
    28    17    19    1
    29    17    18    1
    30    13    12    1
    31    12    10   ar
    32     6     7    1
    33     6     8   ar
    34    10     8   ar
    35    10    11    1
    36     8     9    1
