@<TRIPOS>MOLECULE
2,4
 36 36 0 0 0
SMALL
GASTEIGER

@<TRIPOS>ATOM
      1 SI          8.3683   13.2195    9.9641 Si      1  UNL1        0.0000
      2 N           9.8523   10.7450   12.6090 N.pl3   1  UNL1        0.0000
      3 N           7.5365   10.8018   12.1207 N.3     1  UNL1        0.0000
      4 N           9.1859   12.0529   10.9429 N.3     1  UNL1        0.0000
      5 C           9.8940    9.5166   13.2471 C.ar    1  UNL1        0.0000
      6 C          10.6519    9.3954   14.4175 C.ar    1  UNL1        0.0000
      7 H          11.1236   10.2807   14.8184 H       1  UNL1        0.0000
      8 C          10.7990    8.1741   15.0427 C.ar    1  UNL1        0.0000
      9 H          11.3878    8.1022   15.9469 H       1  UNL1        0.0000
     10 C          10.1921    7.0413   14.5236 C.ar    1  UNL1        0.0000
     11 H          10.3080    6.0865   15.0144 H       1  UNL1        0.0000
     12 C           9.4404    7.1463   13.3651 C.ar    1  UNL1        0.0000
     13 H           8.9715    6.2666   12.9468 H       1  UNL1        0.0000
     14 C           9.2899    8.3633   12.7304 C.ar    1  UNL1        0.0000
     15 H           8.7249    8.4284   11.8129 H       1  UNL1        0.0000
     16 C           8.8269   11.1831   11.8743 C.3     1  UNL1        0.0000
     17 C           7.0979   10.3620   13.4219 C.3     1  UNL1        0.0000
     18 H           7.8299   10.6355   14.1749 H       1  UNL1        0.0000
     19 H           6.9394    9.2778   13.4582 H       1  UNL1        0.0000
     20 H           6.1530   10.8622   13.6529 H       1  UNL1        0.0000
     21 C           6.5581   10.6241   11.0793 C.3     1  UNL1        0.0000
     22 H           7.0078   10.8327   10.1157 H       1  UNL1        0.0000
     23 H           5.6995   11.2825   11.2286 H       1  UNL1        0.0000
     24 H           6.2043    9.5865   11.0919 H       1  UNL1        0.0000
     25 C           6.7589   13.8968   10.7582 C.3     1  UNL1        0.0000
     26 H           6.7133   13.6770   11.8197 H       1  UNL1        0.0000
     27 H           5.8765   13.4788   10.2867 H       1  UNL1        0.0000
     28 H           6.6996   14.9737   10.6465 H       1  UNL1        0.0000
     29 C           8.0042   12.5294    8.2122 C.3     1  UNL1        0.0000
     30 H           8.9108   12.1011    7.7946 H       1  UNL1        0.0000
     31 H           7.6898   13.3363    7.5580 H       1  UNL1        0.0000
     32 H           7.2265   11.7718    8.1817 H       1  UNL1        0.0000
     33 C           9.5807   14.6772    9.7133 C.3     1  UNL1        0.0000
     34 H          10.4666   14.5545   10.3321 H       1  UNL1        0.0000
     35 H           9.1285   15.6375    9.9428 H       1  UNL1        0.0000
     36 H           9.9175   14.7101    8.6827 H       1  UNL1        0.0000
@<TRIPOS>BOND
     1    31    29    1
     2    30    29    1
     3    32    29    1
     4    29     1    1
     5    36    33    1
     6    33    35    1
     7    33     1    1
     8    33    34    1
     9     1    25    1
    10     1     4    1
    11    22    21    1
    12    27    25    1
    13    28    25    1
    14    25    26    1
    15     4    16    1
    16    21    24    1
    17    21    23    1
    18    21     3    1
    19    15    14    1
    20    16     3    1
    21    16     2    1
    22     3    17    1
    23     2     5    1
    24    14     5   ar
    25    14    12   ar
    26    13    12    1
    27     5     6   ar
    28    12    10   ar
    29    17    19    1
    30    17    20    1
    31    17    18    1
    32     6     7    1
    33     6     8   ar
    34    10    11    1
    35    10     8   ar
    36     8     9    1
