@<TRIPOS>MOLECULE
1,2
 20 21 0 0 0
SMALL
GASTEIGER

@<TRIPOS>ATOM
      1 N           0.9600    2.8356   11.3625 N.pl3   1  UNL1       -0.2427
      2 N           3.0604    1.8278   10.3649 N.pl3   1  UNL1       -0.2387
      3 C          -0.1779    3.2689   11.9020 C.3     1  UNL1        0.0844
      4 C          -0.4844    4.6047   12.0582 C.2     1  UNL1       -0.0600
      5 C           0.4375    5.5593   11.6329 C.2     1  UNL1       -0.0623
      6 C           1.6197    5.1272   11.0723 C.2     1  UNL1       -0.0408
      7 C           1.8580    3.7534   10.9476 C.2     1  UNL1        0.0578
      8 C           3.0606    3.1769   10.3762 C.3     1  UNL1        0.1419
      9 C           4.1363    3.9193    9.8758 C.2     1  UNL1       -0.0507
     10 C           5.2284    3.2599    9.3557 C.2     1  UNL1       -0.0620
     11 C           5.2205    1.8655    9.3477 C.2     1  UNL1       -0.0466
     12 C           4.1250    1.2030    9.8582 C.2     1  UNL1        0.0129
     13 H          -0.8564    2.4860   12.2147 H       1  UNL1        0.0584
     14 H          -1.4216    4.8987   12.5021 H       1  UNL1        0.0592
     15 H           0.2316    6.6135   11.7394 H       1  UNL1        0.0616
     16 H           2.3531    5.8409   10.7335 H       1  UNL1        0.0634
     17 H           6.0545    1.3099    8.9501 H       1  UNL1        0.0630
     18 H           4.0667    0.1206    9.8769 H       1  UNL1        0.0798
     19 H           4.1119    4.9969    9.8965 H       1  UNL1        0.0598
     20 H           6.0699    3.8103    8.9639 H       1  UNL1        0.0616
@<TRIPOS>BOND
     1    17    11    1
     2    20    10    1
     3    11    10    1
     4    11    12    2
     5    10     9    2
     6    12    18    1
     7    12     2    1
     8     9    19    1
     9     9     8    1
    10     2     8    1
    11     8     7    1
    12    16     6    1
    13     7     6    2
    14     7     1    1
    15     6     5    1
    16     1     3    1
    17     5    15    1
    18     5     4    2
    19     3     4    1
    20     3    13    1
    21     4    14    1
