@<TRIPOS>MOLECULE
2,3
 49 50 0 0 0
SMALL
GASTEIGER

@<TRIPOS>ATOM
      1 SI          5.2881    1.5192   17.4056 Si      1  UNL1        0.0000
      2 N           1.8462    2.9054   19.1784 N.pl3   1  UNL1        0.0000
      3 N           1.4408    2.3680   16.5027 N.pl3   1  UNL1        0.0000
      4 C           2.9062    2.3919   18.4242 C.2     1  UNL1        0.0000
      5 C           2.6963    2.1620   17.0943 C.2     1  UNL1        0.0000
      6 C           4.2837    2.0325   18.9469 C.3     1  UNL1        0.0000
      7 C           3.8012    1.5972   16.2309 C.3     1  UNL1        0.0000
      8 C           6.6482    2.7883   16.9823 C.3     1  UNL1        0.0000
      9 C           6.0372   -0.2255   17.5761 C.3     1  UNL1        0.0000
     10 C           2.0482    3.4545   20.5177 C.3     1  UNL1        0.0000
     11 C           2.7696    2.5041   21.5047 C.3     1  UNL1        0.0000
     12 C           2.8027    4.7987   20.4437 C.3     1  UNL1        0.0000
     13 C           0.6545    3.7352   21.1190 C.3     1  UNL1        0.0000
     14 C           1.4085    3.0406   15.2837 C.ar    1  UNL1        0.0000
     15 C           2.0408    4.2942   15.1315 C.ar    1  UNL1        0.0000
     16 C           1.9994    4.9351   13.9043 C.ar    1  UNL1        0.0000
     17 C           1.3329    4.3771   12.8274 C.ar    1  UNL1        0.0000
     18 C           0.6876    3.1621   12.9809 C.ar    1  UNL1        0.0000
     19 C           0.7200    2.4860   14.1885 C.ar    1  UNL1        0.0000
     20 C           2.6849    4.9569   16.3157 C.3     1  UNL1        0.0000
     21 C           0.0629    1.1430   14.3331 C.3     1  UNL1        0.0000
     22 H           4.7394    2.8740   19.4669 H       1  UNL1        0.0000
     23 H           4.2165    1.2135   19.6642 H       1  UNL1        0.0000
     24 H           3.5020    0.6160   15.8515 H       1  UNL1        0.0000
     25 H           3.9518    2.2296   15.3534 H       1  UNL1        0.0000
     26 H           7.1178    2.5494   16.0337 H       1  UNL1        0.0000
     27 H           7.4266    2.7935   17.7387 H       1  UNL1        0.0000
     28 H           6.2515    3.7963   16.9088 H       1  UNL1        0.0000
     29 H           6.7802   -0.2565   18.3664 H       1  UNL1        0.0000
     30 H           5.2788   -0.9680   17.8045 H       1  UNL1        0.0000
     31 H           6.5275   -0.5266   16.6563 H       1  UNL1        0.0000
     32 H           2.4922    2.7528   22.5271 H       1  UNL1        0.0000
     33 H           2.4803    1.4738   21.3109 H       1  UNL1        0.0000
     34 H           3.8481    2.5863   21.4327 H       1  UNL1        0.0000
     35 H           2.2586    5.4904   19.8021 H       1  UNL1        0.0000
     36 H           2.8980    5.2353   21.4356 H       1  UNL1        0.0000
     37 H           3.7959    4.6660   20.0249 H       1  UNL1        0.0000
     38 H           0.7533    4.0276   22.1635 H       1  UNL1        0.0000
     39 H           0.0321    2.8363   21.0661 H       1  UNL1        0.0000
     40 H           0.1691    4.5535   20.5937 H       1  UNL1        0.0000
     41 H           2.4848    5.8955   13.7945 H       1  UNL1        0.0000
     42 H           1.3082    4.8905   11.8778 H       1  UNL1        0.0000
     43 H           0.1596    2.7259   12.1440 H       1  UNL1        0.0000
     44 H           2.0911    4.7658   17.2188 H       1  UNL1        0.0000
     45 H           2.7610    6.0303   16.1489 H       1  UNL1        0.0000
     46 H           3.6872    4.5649   16.4899 H       1  UNL1        0.0000
     47 H          -0.6416    0.9699   13.5219 H       1  UNL1        0.0000
     48 H          -0.4564    1.0746   15.2934 H       1  UNL1        0.0000
     49 H           0.8196    0.3569   14.3009 H       1  UNL1        0.0000
@<TRIPOS>BOND
     1    42    17    1
     2    43    18    1
     3    17    18   ar
     4    17    16   ar
     5    18    19   ar
     6    47    21    1
     7    41    16    1
     8    16    15   ar
     9    19    21    1
    10    19    14   ar
    11    49    21    1
    12    21    48    1
    13    15    14   ar
    14    15    20    1
    15    14     3    1
    16    25     7    1
    17    24     7    1
    18    26     8    1
    19    45    20    1
    20     7     5    1
    21     7     1    1
    22    20    46    1
    23    20    44    1
    24     3     5    1
    25    31     9    1
    26    28     8    1
    27     8     1    1
    28     8    27    1
    29     5     4    2
    30     1     9    1
    31     1     6    1
    32     9    30    1
    33     9    29    1
    34     4     6    1
    35     4     2    1
    36     6    22    1
    37     6    23    1
    38     2    10    1
    39    35    12    1
    40    37    12    1
    41    12    10    1
    42    12    36    1
    43    10    13    1
    44    10    11    1
    45    40    13    1
    46    39    13    1
    47    13    38    1
    48    33    11    1
    49    34    11    1
    50    11    32    1
