@<TRIPOS>MOLECULE
2,3
 47 47 0 0 0
SMALL
GASTEIGER

@<TRIPOS>ATOM
      1 SI          0.0775    4.3741   12.7070 Si      1  UNL1        0.0000
      2 N          -2.1878    5.7000    9.3547 N.pl3   1  UNL1        0.3300
      3 N          -0.9471    4.2667   11.3284 N.3     1  UNL1        0.0000
      4 C          -3.4161    7.7695    9.2645 C.ar    1  UNL1        0.0000
      5 H          -2.6207    8.2300    9.8271 H       1  UNL1        0.0000
      6 C          -1.2443    3.2890   10.5070 C.3     1  UNL1        0.0000
      7 N          -1.4077    3.4850    9.1992 N.pl3   1  UNL1        0.3300
      8 N          -1.2836    1.9740   10.9018 N.3     1  UNL1        0.0000
      9 C          -4.3273    5.8194    8.1991 C.ar    1  UNL1        0.0000
     10 H          -4.2566    4.7726    7.9387 H       1  UNL1        0.0000
     11 C          -3.2842    6.4183    8.9210 C.ar    1  UNL1        0.0000
     12 N          -1.6651    4.6976    7.2957 N.pl3   1  UNL1        0.3300
     13 C          -1.7370    4.6455    8.6603 C.cat   1  UNL1        0.0000
     14 C          -1.6888    5.9325    6.5567 C.3     1  UNL1        0.0000
     15 H          -1.5638    6.7778    7.2289 H       1  UNL1        0.0000
     16 H          -2.6330    6.0559    6.0146 H       1  UNL1        0.0000
     17 H          -0.8678    5.9328    5.8346 H       1  UNL1        0.0000
     18 C           1.0144    2.7837   13.2131 C.3     1  UNL1        0.0000
     19 H           0.4931    2.2238   13.9810 H       1  UNL1        0.0000
     20 H           1.9952    3.0362   13.6029 H       1  UNL1        0.0000
     21 H           1.1587    2.1306   12.3601 H       1  UNL1        0.0000
     22 C           1.4473    5.6245   12.2235 C.3     1  UNL1        0.0000
     23 H           2.1156    5.2117   11.4746 H       1  UNL1        0.0000
     24 H           2.0504    5.9136   13.0786 H       1  UNL1        0.0000
     25 H           0.9991    6.5199   11.8033 H       1  UNL1        0.0000
     26 C          -4.5379    8.4842    8.9021 C.ar    1  UNL1        0.0000
     27 H          -4.6162    9.5268    9.1778 H       1  UNL1        0.0000
     28 C          -5.4434    6.5462    7.8357 C.ar    1  UNL1        0.0000
     29 H          -6.2359    6.0618    7.2825 H       1  UNL1        0.0000
     30 C          -1.3141    3.5285    6.5325 C.3     1  UNL1        0.0000
     31 H          -0.2580    3.5413    6.2423 H       1  UNL1        0.0000
     32 H          -1.9269    3.4916    5.6291 H       1  UNL1        0.0000
     33 H          -1.5015    2.6497    7.1422 H       1  UNL1        0.0000
     34 C          -1.7882    1.6120   12.2039 C.3     1  UNL1        0.0000
     35 H          -1.8839    2.4986   12.8220 H       1  UNL1        0.0000
     36 H          -1.1153    0.9008   12.6871 H       1  UNL1        0.0000
     37 H          -2.7768    1.1504   12.1107 H       1  UNL1        0.0000
     38 C          -5.5590    7.8824    8.1815 C.ar    1  UNL1        0.0000
     39 H          -6.4343    8.4464    7.8948 H       1  UNL1        0.0000
     40 C          -1.4940    0.9612    9.8949 C.3     1  UNL1        0.0000
     41 H          -2.5445    0.8907    9.5904 H       1  UNL1        0.0000
     42 H          -1.1787   -0.0001   10.3019 H       1  UNL1        0.0000
     43 H          -0.8928    1.2007    9.0222 H       1  UNL1        0.0000
     44 C          -0.9208    5.0779   14.1732 C.3     1  UNL1        0.0000
     45 H          -1.4928    5.9371   13.8317 H       1  UNL1        0.0000
     46 H          -0.2764    5.3955   14.9864 H       1  UNL1        0.0000
     47 H          -1.6296    4.3594   14.5723 H       1  UNL1        0.0000
@<TRIPOS>BOND
     1    32    30    1
     2    17    14    1
     3    16    14    1
     4    31    30    1
     5    30    33    1
     6    30    12    1
     7    14    15    1
     8    14    12    1
     9    29    28    1
    10    12    13    1
    11    28    38   ar
    12    28     9   ar
    13    39    38    1
    14    10     9    1
    15    38    26   ar
    16     9    11   ar
    17    13     7    2
    18    13     2    1
    19    26    27    1
    20    26     4   ar
    21    11     4   ar
    22    11     2    1
    23    43    40    1
    24     7     6    1
    25     4     5    1
    26    41    40    1
    27    40    42    1
    28    40     8    1
    29     6     8    1
    30     6     3    1
    31     8    34    1
    32     3     1    1
    33    23    22    1
    34    25    22    1
    35    37    34    1
    36    34    36    1
    37    34    35    1
    38    22     1    1
    39    22    24    1
    40    21    18    1
    41     1    18    1
    42     1    44    1
    43    18    20    1
    44    18    19    1
    45    45    44    1
    46    44    47    1
    47    44    46    1
