@<TRIPOS>MOLECULE
2,3
 47 47 0 0 0
SMALL
GASTEIGER

@<TRIPOS>ATOM
      1 SI         -0.0034    8.9751   10.8429 Si      1  UNL1        0.0000
      2 N          -1.1621    7.9966   11.7029 N.3     1  UNL1        0.0000
      3 N          -3.3835    6.1750   12.1070 N.pl3   1  UNL1        0.0000
      4 C          -4.0995    5.0149   12.3268 C.ar    1  UNL1        0.0000
      5 N          -1.2274    9.4513   13.5358 N.3     1  UNL1        0.0000
      6 N          -3.1447    8.3486   12.8971 N.3     1  UNL1        0.0000
      7 C          -1.8712    8.5220   12.7004 C.3     1  UNL1        0.0000
      8 N          -5.2290    7.6242   12.3331 N.3     1  UNL1        0.0000
      9 C          -3.8905    7.3556   12.3931 C.3     1  UNL1        0.0000
     10 C          -4.7244    4.8045   13.5637 C.ar    1  UNL1        0.0000
     11 H          -4.6709    5.5845   14.3104 H       1  UNL1        0.0000
     12 C          -0.1654    8.8717   14.3364 C.3     1  UNL1        0.0000
     13 H          -0.5677    8.3688   15.2270 H       1  UNL1        0.0000
     14 H           0.5135    9.6613   14.6616 H       1  UNL1        0.0000
     15 H           0.3826    8.1446   13.7453 H       1  UNL1        0.0000
     16 C          -4.1704    3.9936   11.3758 C.ar    1  UNL1        0.0000
     17 H          -3.6986    4.1455   10.4216 H       1  UNL1        0.0000
     18 C          -2.1058   10.2845   14.3286 C.3     1  UNL1        0.0000
     19 H          -2.8449   10.7374   13.6727 H       1  UNL1        0.0000
     20 H          -1.5056   11.0674   14.7936 H       1  UNL1        0.0000
     21 H          -2.6289    9.7220   15.1114 H       1  UNL1        0.0000
     22 C          -5.3903    3.6260   13.8313 C.ar    1  UNL1        0.0000
     23 H          -5.8616    3.4858   14.7945 H       1  UNL1        0.0000
     24 C           0.4323    7.8950    9.3273 C.3     1  UNL1        0.0000
     25 H           0.0530    6.8800    9.4540 H       1  UNL1        0.0000
     26 H           1.5047    7.8340    9.1764 H       1  UNL1        0.0000
     27 H          -0.0006    8.3006    8.4194 H       1  UNL1        0.0000
     28 C          -4.8512    2.8245   11.6464 C.ar    1  UNL1        0.0000
     29 H          -4.9172    2.0593   10.8845 H       1  UNL1        0.0000
     30 C          -0.8464   10.6101   10.3169 C.3     1  UNL1        0.0000
     31 H          -1.7035   10.4364    9.6737 H       1  UNL1        0.0000
     32 H          -0.1552   11.2523    9.7800 H       1  UNL1        0.0000
     33 H          -1.1952   11.1531   11.1895 H       1  UNL1        0.0000
     34 C          -5.4643    2.6276   12.8739 C.ar    1  UNL1        0.0000
     35 H          -5.9956    1.7100   13.0811 H       1  UNL1        0.0000
     36 C          -6.1457    6.8313   11.5531 C.3     1  UNL1        0.0000
     37 H          -5.6038    6.2031   10.8510 H       1  UNL1        0.0000
     38 H          -6.7957    7.4974   10.9816 H       1  UNL1        0.0000
     39 H          -6.7655    6.1937   12.1928 H       1  UNL1        0.0000
     40 C           1.6452    9.4840   11.6755 C.3     1  UNL1        0.0000
     41 H           1.4896   10.2237   12.4524 H       1  UNL1        0.0000
     42 H           2.2949    9.9294   10.9279 H       1  UNL1        0.0000
     43 H           2.1818    8.6473   12.1107 H       1  UNL1        0.0000
     44 C          -5.7363    8.9040   12.7580 C.3     1  UNL1        0.0000
     45 H          -5.0395    9.3383   13.4689 H       1  UNL1        0.0000
     46 H          -6.7082    8.7614   13.2348 H       1  UNL1        0.0000
     47 H          -5.8552    9.5895   11.9116 H       1  UNL1        0.0000
@<TRIPOS>BOND
     1    27    24    1
     2    26    24    1
     3    24    25    1
     4    24     1    1
     5    31    30    1
     6    32    30    1
     7    30     1    1
     8    30    33    1
     9    17    16    1
    10     1    40    1
    11     1     2    1
    12    37    36    1
    13    29    28    1
    14    42    40    1
    15    38    36    1
    16    16    28   ar
    17    16     4   ar
    18    36    39    1
    19    36     8    1
    20    28    34   ar
    21    40    43    1
    22    40    41    1
    23     2     7    1
    24    47    44    1
    25     3     4    1
    26     3     9    1
    27     4    10   ar
    28     8     9    1
    29     8    44    1
    30     9     6    1
    31     7     6    1
    32     7     5    1
    33    44    46    1
    34    44    45    1
    35    34    35    1
    36    34    22   ar
    37     5    18    1
    38     5    12    1
    39    10    22   ar
    40    10    11    1
    41    19    18    1
    42    15    12    1
    43    22    23    1
    44    18    20    1
    45    18    21    1
    46    12    14    1
    47    12    13    1
