@<TRIPOS>MOLECULE
1,2
 42 41 0 0 0
SMALL
GASTEIGER

@<TRIPOS>ATOM
      1 N          10.7008   12.4001    2.9835 N.3     1  UNL1        0.0000
      2 N          10.3011   14.4798    3.7061 N.3     1  UNL1        0.0000
      3 N          12.5535   13.8812    3.2815 N.3     1  UNL1        0.0000
      4 SI         13.4659   14.5730    2.1051 Si      1  UNL1        0.0000
      5 SI         13.4749   13.0218    4.8787 Si      1  UNL1        0.0000
      6 C          11.1861   13.5831    3.3047 C.3     1  UNL1        0.0000
      7 C          11.5643   11.3494    2.4742 C.3     1  UNL1        0.0000
      8 H          12.6181   11.6509    2.5569 H       1  UNL1        0.0000
      9 C          10.7306   15.8467    3.9503 C.3     1  UNL1        0.0000
     10 H          11.7502   15.8465    4.3634 H       1  UNL1        0.0000
     11 C          11.3561   10.0670    3.2806 C.3     1  UNL1        0.0000
     12 H          11.8158   10.1658    4.2596 H       1  UNL1        0.0000
     13 H          11.8017    9.2191    2.7652 H       1  UNL1        0.0000
     14 H          10.2878    9.8939    3.4004 H       1  UNL1        0.0000
     15 C          11.2606   11.0842    0.9927 C.3     1  UNL1        0.0000
     16 H          10.2522   10.6926    0.8854 H       1  UNL1        0.0000
     17 H          11.9614   10.3537    0.5934 H       1  UNL1        0.0000
     18 H          11.3415   11.9997    0.4102 H       1  UNL1        0.0000
     19 C           9.7981   16.5304    4.9511 C.3     1  UNL1        0.0000
     20 H           8.7584   16.3405    4.6920 H       1  UNL1        0.0000
     21 H           9.9708   17.6049    4.9436 H       1  UNL1        0.0000
     22 H           9.9779   16.1613    5.9564 H       1  UNL1        0.0000
     23 C          10.7557   16.6575    2.6415 C.3     1  UNL1        0.0000
     24 H          11.2561   16.0950    1.8520 H       1  UNL1        0.0000
     25 H          11.2858   17.5963    2.7885 H       1  UNL1        0.0000
     26 H           9.7431   16.8772    2.3170 H       1  UNL1        0.0000
     27 C          13.6748   13.9063    0.3369 C.3     1  UNL1        0.0000
     28 H          14.5081   14.3827   -0.1732 H       1  UNL1        0.0000
     29 H          12.7822   14.0755   -0.2601 H       1  UNL1        0.0000
     30 H          13.8567   12.8348    0.3445 H       1  UNL1        0.0000
     31 C          14.5998   16.0447    2.4680 C.3     1  UNL1        0.0000
     32 H          14.1483   16.7364    3.1738 H       1  UNL1        0.0000
     33 H          14.8337   16.5954    1.5599 H       1  UNL1        0.0000
     34 H          15.5405   15.7057    2.8966 H       1  UNL1        0.0000
     35 C          15.1871   12.7011    4.0374 C.3     1  UNL1        0.0000
     36 H          15.7642   12.0551    4.6951 H       1  UNL1        0.0000
     37 H          15.7964   13.5915    3.8673 H       1  UNL1        0.0000
     38 H          15.0953   12.1738    3.0878 H       1  UNL1        0.0000
     39 C          13.8675   14.6262    5.8738 C.3     1  UNL1        0.0000
     40 H          14.4304   14.3516    6.7641 H       1  UNL1        0.0000
     41 H          12.9658   15.1317    6.2149 H       1  UNL1        0.0000
     42 H          14.4667   15.3561    5.3271 H       1  UNL1        0.0000
@<TRIPOS>BOND
     1    29    27    1
     2    28    27    1
     3    27    30    1
     4    27     4    1
     5    18    15    1
     6    17    15    1
     7    16    15    1
     8    15     7    1
     9    33    31    1
    10    24    23    1
    11     4    31    1
    12     4     3    1
    13    26    23    1
    14    31    34    1
    15    31    32    1
    16     7     8    1
    17     7     1    1
    18     7    11    1
    19    23    25    1
    20    23     9    1
    21    13    11    1
    22     1     6    1
    23    38    35    1
    24    11    14    1
    25    11    12    1
    26     3     6    1
    27     3     5    1
    28     6     2    1
    29     2     9    1
    30    37    35    1
    31     9    10    1
    32     9    19    1
    33    35    36    1
    34    35     5    1
    35    20    19    1
    36     5    39    1
    37    21    19    1
    38    19    22    1
    39    42    39    1
    40    39    41    1
    41    39    40    1
