@<TRIPOS>MOLECULE
3,4
 32 33 0 0 0
SMALL
GASTEIGER

@<TRIPOS>ATOM
      1 O          12.4617    4.5026   -0.6924 O.2     1  UNL1       -0.2484
      2 C          11.6616    4.8248    0.1784 C.2     1  UNL1        0.3477
      3 N          11.8240    4.6841    1.5367 N.am    1  UNL1       -0.1619
      4 N          10.4863    5.5303    0.0271 N.am    1  UNL1       -0.1619
      5 C          12.6829    3.6945    2.0085 C.ar    1  UNL1        0.0583
      6 C          13.4330    3.8768    3.1736 C.ar    1  UNL1       -0.0383
      7 C          14.2447    2.8731    3.6613 C.ar    1  UNL1       -0.0570
      8 C          14.3532    1.6524    3.0072 C.ar    1  UNL1       -0.0503
      9 C          13.6185    1.4723    1.8427 C.ar    1  UNL1       -0.0570
     10 C          12.7963    2.4651    1.3511 C.ar    1  UNL1       -0.0383
     11 C          15.2488    0.5753    3.5419 C.3     1  UNL1       -0.0397
     12 C           9.9428    5.8818   -1.1992 C.ar    1  UNL1        0.0583
     13 C           8.9244    6.8451   -1.2002 C.ar    1  UNL1       -0.0383
     14 C           8.3187    7.2325   -2.3764 C.ar    1  UNL1       -0.0570
     15 C           8.7027    6.6831   -3.5960 C.ar    1  UNL1       -0.0503
     16 C           9.7048    5.7228   -3.5919 C.ar    1  UNL1       -0.0570
     17 C          10.3179    5.3176   -2.4216 C.ar    1  UNL1       -0.0383
     18 C           8.0332    7.1131   -4.8674 C.3     1  UNL1       -0.0397
     19 H          13.3748    4.8150    3.7044 H       1  UNL1        0.0637
     20 H          14.8095    3.0415    4.5685 H       1  UNL1        0.0621
     21 H          13.6836    0.5324    1.3126 H       1  UNL1        0.0621
     22 H          12.2355    2.2972    0.4443 H       1  UNL1        0.0637
     23 H          15.0502   -0.3731    3.0490 H       1  UNL1        0.0278
     24 H          16.2949    0.8347    3.3749 H       1  UNL1        0.0278
     25 H          15.1034    0.4506    4.6138 H       1  UNL1        0.0278
     26 H           8.6143    7.2654   -0.2504 H       1  UNL1        0.0637
     27 H           7.5329    7.9754   -2.3513 H       1  UNL1        0.0621
     28 H          10.0155    5.2754   -4.5258 H       1  UNL1        0.0621
     29 H          11.0949    4.5713   -2.4460 H       1  UNL1        0.0637
     30 H           8.5365    6.6900   -5.7331 H       1  UNL1        0.0278
     31 H           6.9942    6.7831   -4.8783 H       1  UNL1        0.0278
     32 H           8.0372    8.1988   -4.9566 H       1  UNL1        0.0278
@<TRIPOS>BOND
     1    30    18    1
     2    32    18    1
     3    31    18    1
     4    18    15    1
     5    28    16    1
     6    15    16   ar
     7    15    14   ar
     8    16    17   ar
     9    29    17    1
    10    17    12   ar
    11    14    27    1
    12    14    13   ar
    13    13    12   ar
    14    13    26    1
    15    12     4    1
    16     1     2    2
    17     4     2    1
    18     2     3    1
    19    22    10    1
    20    21     9    1
    21    10     9   ar
    22    10     5   ar
    23     3     5    1
    24     9     8   ar
    25     5     6   ar
    26     8    11    1
    27     8     7   ar
    28    23    11    1
    29     6     7   ar
    30     6    19    1
    31    24    11    1
    32    11    25    1
    33     7    20    1
