@<TRIPOS>MOLECULE
1,2
 31 32 0 0 0
SMALL
GASTEIGER

@<TRIPOS>ATOM
      1 N           7.3657    1.0701   11.1426 N.pl3   1  UNL1       -0.2475
      2 N           7.9971   -1.4332   11.5839 N.pl3   1  UNL1       -0.2434
      3 C           6.7807    0.1260   10.2364 C.3     1  UNL1        0.0605
      4 C           7.1367   -1.2826   10.5884 C.3     1  UNL1        0.1164
      5 C           6.5841   -2.3664    9.9067 C.2     1  UNL1       -0.0551
      6 C           6.9481   -3.6444   10.2818 C.2     1  UNL1       -0.0623
      7 C           7.8453   -3.7978   11.3321 C.2     1  UNL1       -0.0466
      8 C           8.3376   -2.6635   11.9489 C.2     1  UNL1        0.0125
      9 C           6.8120    2.3555   11.0142 C.ar    1  UNL1        0.0536
     10 C           5.5792    2.6545   11.6176 C.ar    1  UNL1       -0.0276
     11 C           5.0642    3.9394   11.5223 C.ar    1  UNL1       -0.0570
     12 C           5.7451    4.9282   10.8383 C.ar    1  UNL1       -0.0611
     13 C           6.9441    4.6274   10.2204 C.ar    1  UNL1       -0.0570
     14 C           7.4812    3.3498   10.2840 C.ar    1  UNL1       -0.0276
     15 C           4.8129    1.6067   12.3780 C.3     1  UNL1       -0.0379
     16 C           8.7471    3.0414    9.5392 C.3     1  UNL1       -0.0379
     17 H           5.6806    0.2179   10.2172 H       1  UNL1        0.0508
     18 H           7.1129    0.3209    9.1967 H       1  UNL1        0.0508
     19 H           5.8880   -2.1977    9.0988 H       1  UNL1        0.0595
     20 H           6.5422   -4.5061    9.7728 H       1  UNL1        0.0616
     21 H           8.1530   -4.7775   11.6620 H       1  UNL1        0.0630
     22 H           9.0288   -2.7448   12.7787 H       1  UNL1        0.0797
     23 H           4.1200    4.1641   11.9982 H       1  UNL1        0.0621
     24 H           5.3393    5.9272   10.7816 H       1  UNL1        0.0618
     25 H           7.4737    5.3921    9.6707 H       1  UNL1        0.0621
     26 H           5.4794    0.8157   12.7236 H       1  UNL1        0.0278
     27 H           4.3163    2.0530   13.2376 H       1  UNL1        0.0278
     28 H           4.0408    1.1619   11.7468 H       1  UNL1        0.0278
     29 H           9.1761    2.1030    9.8946 H       1  UNL1        0.0278
     30 H           8.5372    2.9608    8.4708 H       1  UNL1        0.0278
     31 H           9.4683    3.8429    9.6800 H       1  UNL1        0.0278
@<TRIPOS>BOND
     1    30    16    1
     2    19     5    1
     3    18     3    1
     4    16    31    1
     5    16    29    1
     6    16    14    1
     7    25    13    1
     8    20     6    1
     9     5     6    2
    10     5     4    1
    11    17     3    1
    12    13    14   ar
    13    13    12   ar
    14     3     4    1
    15     3     1    1
    16     6     7    1
    17    14     9   ar
    18     4     2    1
    19    24    12    1
    20    12    11   ar
    21     9     1    1
    22     9    10   ar
    23     7    21    1
    24     7     8    2
    25    11    10   ar
    26    11    23    1
    27     2     8    1
    28    10    15    1
    29    28    15    1
    30     8    22    1
    31    15    26    1
    32    15    27    1
