@<TRIPOS>MOLECULE
1,2
 43 44 0 0 0
SMALL
GASTEIGER

@<TRIPOS>ATOM
      1 N           2.4585    2.6441    4.9463 N.pl3   1  UNL1       -0.2475
      2 N           4.4441    2.5613    3.1980 N.pl3   1  UNL1       -0.2434
      3 C           3.0703    3.9021    4.6160 C.3     1  UNL1        0.0605
      4 C           4.3411    3.7149    3.8401 C.3     1  UNL1        0.1164
      5 C           5.3358    4.6886    3.7892 C.2     1  UNL1       -0.0551
      6 C           6.4704    4.4394    3.0403 C.2     1  UNL1       -0.0623
      7 C           6.5703    3.2309    2.3640 C.2     1  UNL1       -0.0466
      8 C           5.5293    2.3269    2.4738 C.2     1  UNL1        0.0125
      9 C           1.9971    2.5552    6.2698 C.ar    1  UNL1        0.0547
     10 C           2.9092    2.2725    7.3056 C.ar    1  UNL1       -0.0220
     11 C           2.4574    2.2150    8.6163 C.ar    1  UNL1       -0.0565
     12 C           1.1269    2.4234    8.9201 C.ar    1  UNL1       -0.0611
     13 C           0.2311    2.7033    7.9062 C.ar    1  UNL1       -0.0565
     14 C           0.6435    2.7807    6.5844 C.ar    1  UNL1       -0.0220
     15 C           4.3737    2.0276    7.0120 C.3     1  UNL1       -0.0197
     16 C          -0.3388    3.1721    5.5054 C.3     1  UNL1       -0.0197
     17 C           5.2359    3.1861    7.5223 C.3     1  UNL1       -0.0586
     18 C           4.8547    0.7103    7.6265 C.3     1  UNL1       -0.0586
     19 C          -0.5014    4.6973    5.4980 C.3     1  UNL1       -0.0586
     20 C          -1.7065    2.5103    5.6775 C.3     1  UNL1       -0.0586
     21 H           3.2698    4.4994    5.5189 H       1  UNL1        0.0508
     22 H           2.3933    4.5080    3.9811 H       1  UNL1        0.0508
     23 H           5.2157    5.6165    4.3283 H       1  UNL1        0.0595
     24 H           7.2645    5.1693    2.9844 H       1  UNL1        0.0616
     25 H           7.4376    2.9981    1.7663 H       1  UNL1        0.0630
     26 H           5.5671    1.3708    1.9660 H       1  UNL1        0.0797
     27 H           3.1561    2.0071    9.4129 H       1  UNL1        0.0621
     28 H           0.7903    2.3765    9.9454 H       1  UNL1        0.0618
     29 H          -0.8042    2.8794    8.1526 H       1  UNL1        0.0621
     30 H           4.4953    1.9516    5.9260 H       1  UNL1        0.0344
     31 H           0.0820    2.8441    4.5456 H       1  UNL1        0.0344
     32 H           5.1416    3.2854    8.6016 H       1  UNL1        0.0235
     33 H           4.9357    4.1292    7.0698 H       1  UNL1        0.0235
     34 H           6.2834    3.0106    7.2832 H       1  UNL1        0.0235
     35 H           5.8529    0.4729    7.2634 H       1  UNL1        0.0235
     36 H           4.1851   -0.1026    7.3562 H       1  UNL1        0.0235
     37 H           4.8971    0.7742    8.7111 H       1  UNL1        0.0235
     38 H           0.4558    5.1934    5.3504 H       1  UNL1        0.0235
     39 H          -0.9122    5.0351    6.4478 H       1  UNL1        0.0235
     40 H          -1.1779    5.0018    4.7022 H       1  UNL1        0.0235
     41 H          -1.5946    1.4466    5.8656 H       1  UNL1        0.0235
     42 H          -2.2920    2.6381    4.7703 H       1  UNL1        0.0235
     43 H          -2.2611    2.9575    6.4994 H       1  UNL1        0.0235
@<TRIPOS>BOND
     1    25     7    1
     2    26     8    1
     3     7     8    2
     4     7     6    1
     5     8     2    1
     6    24     6    1
     7     6     5    2
     8     2     4    1
     9     5     4    1
    10     5    23    1
    11     4     3    1
    12    22     3    1
    13    31    16    1
    14     3     1    1
    15     3    21    1
    16    40    19    1
    17    42    20    1
    18     1     9    1
    19    38    19    1
    20    19    16    1
    21    19    39    1
    22    16    20    1
    23    16    14    1
    24    20    41    1
    25    20    43    1
    26    30    15    1
    27     9    14   ar
    28     9    10   ar
    29    14    13   ar
    30    15    10    1
    31    15    17    1
    32    15    18    1
    33    33    17    1
    34    35    18    1
    35    34    17    1
    36    10    11   ar
    37    36    18    1
    38    17    32    1
    39    18    37    1
    40    13    29    1
    41    13    12   ar
    42    11    12   ar
    43    11    27    1
    44    12    28    1
