@<TRIPOS>MOLECULE
2,3
 98 102 0 0 0
SMALL
GASTEIGER

@<TRIPOS>ATOM
      1 SI         -4.5725   13.5801    3.8256 Si      1  UNL1        0.0000
      2 N          -0.6082    8.4576    1.7624 N.3     1  UNL1        0.0000
      3 N          -2.0795    6.9646    1.1686 N.3     1  UNL1        0.0000
      4 N          -7.3157   10.6153    3.9758 N.3     1  UNL1        0.0000
      5 H          -8.1251   11.0926    4.3514 H       1  UNL1        0.0000
      6 N          -6.1485   12.6262    3.8657 N.3     1  UNL1        0.0000
      7 C          -1.8929    8.1722    1.6726 C.3     1  UNL1        0.0000
      8 C          -2.9901    9.0395    2.1837 C.ar    1  UNL1        0.0000
      9 C          -3.6768    9.9246    1.3602 C.ar    1  UNL1        0.0000
     10 H          -3.4046   10.0083    0.3190 H       1  UNL1        0.0000
     11 C          -4.7107   10.6879    1.8744 C.ar    1  UNL1        0.0000
     12 H          -5.2596   11.3604    1.2335 H       1  UNL1        0.0000
     13 C          -5.0653   10.5679    3.2137 C.ar    1  UNL1        0.0000
     14 C          -4.3815    9.6764    4.0368 C.ar    1  UNL1        0.0000
     15 H          -4.6598    9.5812    5.0752 H       1  UNL1        0.0000
     16 C          -3.3434    8.9223    3.5278 C.ar    1  UNL1        0.0000
     17 H          -2.8035    8.2278    4.1586 H       1  UNL1        0.0000
     18 C          -6.2301   11.3213    3.7237 C.3     1  UNL1        0.0000
     19 C          -0.1044    9.6930    2.3240 C.3     1  UNL1        0.0000
     20 H          -0.8939   10.4636    2.2819 H       1  UNL1        0.0000
     21 C           0.3154    9.4806    3.7849 C.3     1  UNL1        0.0000
     22 H           1.0554    8.6737    3.8154 H       1  UNL1        0.0000
     23 H          -0.5513    9.1726    4.3783 H       1  UNL1        0.0000
     24 C           0.9218   10.7582    4.3594 C.3     1  UNL1        0.0000
     25 H           0.1679   11.5507    4.3620 H       1  UNL1        0.0000
     26 H           1.2276   10.5826    5.3914 H       1  UNL1        0.0000
     27 C           2.1218   11.1991    3.5276 C.3     1  UNL1        0.0000
     28 H           2.5440   12.1167    3.9401 H       1  UNL1        0.0000
     29 H           2.8903   10.4262    3.5676 H       1  UNL1        0.0000
     30 C           1.7072   11.4224    2.0769 C.3     1  UNL1        0.0000
     31 H           2.5731   11.7167    1.4832 H       1  UNL1        0.0000
     32 H           0.9758   12.2340    2.0267 H       1  UNL1        0.0000
     33 C           1.0996   10.1501    1.4950 C.3     1  UNL1        0.0000
     34 H           1.8391    9.3458    1.5010 H       1  UNL1        0.0000
     35 H           0.7849   10.3137    0.4614 H       1  UNL1        0.0000
     36 C          -3.3887    6.3603    1.0317 C.3     1  UNL1        0.0000
     37 H          -4.1471    7.1551    0.9222 H       1  UNL1        0.0000
     38 C          -3.7200    5.5168    2.2712 C.3     1  UNL1        0.0000
     39 H          -2.9324    4.7660    2.3969 H       1  UNL1        0.0000
     40 H          -3.7288    6.1543    3.1616 H       1  UNL1        0.0000
     41 C          -5.0695    4.8242    2.0993 C.3     1  UNL1        0.0000
     42 H          -5.8579    5.5775    2.0033 H       1  UNL1        0.0000
     43 H          -5.2863    4.2218    2.9826 H       1  UNL1        0.0000
     44 C          -5.0588    3.9421    0.8550 C.3     1  UNL1        0.0000
     45 H          -4.3023    3.1655    0.9730 H       1  UNL1        0.0000
     46 H          -6.0278    3.4548    0.7355 H       1  UNL1        0.0000
     47 C          -4.7380    4.7745   -0.3823 C.3     1  UNL1        0.0000
     48 H          -5.5246    5.5184   -0.5368 H       1  UNL1        0.0000
     49 H          -4.7087    4.1334   -1.2637 H       1  UNL1        0.0000
     50 C          -3.3937    5.4768   -0.2191 C.3     1  UNL1        0.0000
     51 H          -2.5967    4.7370   -0.1153 H       1  UNL1        0.0000
     52 H          -3.1742    6.0918   -1.0952 H       1  UNL1        0.0000
     53 C          -7.5367    9.2014    3.7108 C.3     1  UNL1        0.0000
     54 H          -6.6469    8.7993    3.2209 H       1  UNL1        0.0000
     55 C          -8.7377    9.0314    2.7782 C.3     1  UNL1        0.0000
     56 H          -8.5678    9.5812    1.8497 H       1  UNL1        0.0000
     57 H          -9.6345    9.4331    3.2560 H       1  UNL1        0.0000
     58 C          -8.9471    7.5481    2.4793 C.3     1  UNL1        0.0000
     59 H          -9.8096    7.4283    1.8236 H       1  UNL1        0.0000
     60 H          -8.0722    7.1580    1.9551 H       1  UNL1        0.0000
     61 C          -9.1607    6.7647    3.7709 C.3     1  UNL1        0.0000
     62 H         -10.0801    7.1022    4.2533 H       1  UNL1        0.0000
     63 H          -9.2749    5.7053    3.5427 H       1  UNL1        0.0000
     64 C          -7.9841    6.9619    4.7218 C.3     1  UNL1        0.0000
     65 H          -7.0765    6.5527    4.2734 H       1  UNL1        0.0000
     66 H          -8.1659    6.4273    5.6540 H       1  UNL1        0.0000
     67 C          -7.7776    8.4457    5.0187 C.3     1  UNL1        0.0000
     68 H          -8.6658    8.8449    5.5135 H       1  UNL1        0.0000
     69 H          -6.9267    8.5782    5.6890 H       1  UNL1        0.0000
     70 C          -7.3411   13.4604    4.0774 C.3     1  UNL1        0.0000
     71 H          -6.9727   14.4849    3.9937 H       1  UNL1        0.0000
     72 C          -7.9667   13.3456    5.4700 C.3     1  UNL1        0.0000
     73 H          -8.4459   12.3782    5.6356 H       1  UNL1        0.0000
     74 H          -7.1906   13.4607    6.2275 H       1  UNL1        0.0000
     75 C          -9.0255   14.4379    5.6257 C.3     1  UNL1        0.0000
     76 H          -9.4940   14.3537    6.6066 H       1  UNL1        0.0000
     77 H          -8.5498   15.4184    5.5675 H       1  UNL1        0.0000
     78 C         -10.0831   14.3201    4.5313 C.3     1  UNL1        0.0000
     79 H         -10.8168   15.1178    4.6450 H       1  UNL1        0.0000
     80 H         -10.6118   13.3694    4.6326 H       1  UNL1        0.0000
     81 C          -9.4451   14.4058    3.1472 C.3     1  UNL1        0.0000
     82 H          -8.9804   15.3855    3.0217 H       1  UNL1        0.0000
     83 H         -10.2102   14.2996    2.3777 H       1  UNL1        0.0000
     84 C          -8.3914   13.3111    2.9724 C.3     1  UNL1        0.0000
     85 H          -8.8923   12.3427    2.9968 H       1  UNL1        0.0000
     86 H          -7.9062   13.4069    1.9988 H       1  UNL1        0.0000
     87 C          -4.6788   14.7842    5.2951 C.3     1  UNL1        0.0000
     88 H          -3.7404   15.3242    5.3757 H       1  UNL1        0.0000
     89 H          -4.8259   14.2680    6.2400 H       1  UNL1        0.0000
     90 H          -5.4597   15.5315    5.2023 H       1  UNL1        0.0000
     91 C          -3.0049   12.5493    4.1084 C.3     1  UNL1        0.0000
     92 H          -2.7129   11.9595    3.2475 H       1  UNL1        0.0000
     93 H          -3.0807   11.8832    4.9615 H       1  UNL1        0.0000
     94 H          -2.1915   13.2390    4.3138 H       1  UNL1        0.0000
     95 C          -4.5931   14.4300    2.1263 C.3     1  UNL1        0.0000
     96 H          -3.8536   15.2241    2.1002 H       1  UNL1        0.0000
     97 H          -5.5540   14.8803    1.8933 H       1  UNL1        0.0000
     98 H          -4.3477   13.7423    1.3218 H       1  UNL1        0.0000
@<TRIPOS>BOND
     1    49    47    1
     2    52    50    1
     3    48    47    1
     4    47    50    1
     5    47    44    1
     6    50    51    1
     7    50    36    1
     8    10     9    1
     9    35    33    1
    10    46    44    1
    11    44    45    1
    12    44    41    1
    13    37    36    1
    14    36     3    1
    15    36    38    1
    16     3     7    1
    17    12    11    1
    18    98    95    1
    19     9    11   ar
    20     9     8   ar
    21    31    30    1
    22    33    34    1
    23    33    30    1
    24    33    19    1
    25     7     2    1
    26     7     8    1
    27     2    19    1
    28    59    58    1
    29    56    55    1
    30    11    13   ar
    31    97    95    1
    32    60    58    1
    33    86    84    1
    34    42    41    1
    35    32    30    1
    36    30    27    1
    37    41    38    1
    38    41    43    1
    39    96    95    1
    40    95     1    1
    41     8    16   ar
    42    38    39    1
    43    38    40    1
    44    20    19    1
    45    19    21    1
    46    83    81    1
    47    58    55    1
    48    58    61    1
    49    55    57    1
    50    55    53    1
    51    84    85    1
    52    84    81    1
    53    84    70    1
    54    82    81    1
    55    81    78    1
    56    13    18    1
    57    13    14   ar
    58    54    53    1
    59    92    91    1
    60    27    29    1
    61    27    28    1
    62    27    24    1
    63    16    14   ar
    64    16    17    1
    65    63    61    1
    66    53     4    1
    67    53    67    1
    68    18     6    1
    69    18     4    1
    70    61    62    1
    71    61    64    1
    72    21    22    1
    73    21    24    1
    74    21    23    1
    75     1     6    1
    76     1    91    1
    77     1    87    1
    78     6    70    1
    79     4     5    1
    80    71    70    1
    81    14    15    1
    82    70    72    1
    83    91    94    1
    84    91    93    1
    85    65    64    1
    86    24    25    1
    87    24    26    1
    88    78    80    1
    89    78    79    1
    90    78    75    1
    91    64    67    1
    92    64    66    1
    93    67    68    1
    94    67    69    1
    95    90    87    1
    96    87    88    1
    97    87    89    1
    98    72    75    1
    99    72    73    1
   100    72    74    1
   101    77    75    1
   102    75    76    1
