@<TRIPOS>MOLECULE
1,2
 50 50 0 0 0
SMALL
GASTEIGER

@<TRIPOS>ATOM
      1 N          10.4073    3.2899   11.9712 N.3     1  UNL1        0.0000
      2 N          10.0909    3.3228   13.3118 N.3     1  UNL1        0.0000
      3 N          12.9942    4.7592   11.8115 N.pl3   1  UNL1        0.5000
      4 N          13.5055    3.3345   13.4306 N.2     1  UNL1        0.5000
      5 SI         11.9663    3.4248   11.2685 Si      1  UNL1        0.0000
      6 C          10.5851    4.4488   14.0972 C.3     1  UNL1        0.0000
      7 C          10.3061    2.0620   14.0138 C.3     1  UNL1        0.0000
      8 C          12.9982    1.8416   11.1508 C.ar    1  UNL1        0.0000
      9 C          14.3015    1.8998   10.6694 C.ar    1  UNL1        0.0000
     10 C          15.0664    0.7581   10.5189 C.ar    1  UNL1        0.0000
     11 C          14.5343   -0.4802   10.8394 C.ar    1  UNL1        0.0000
     12 C          13.2360   -0.5615   11.3122 C.ar    1  UNL1        0.0000
     13 C          12.4829    0.5895   11.4636 C.ar    1  UNL1        0.0000
     14 C          13.8067    4.4363   12.8479 C.2     1  UNL1        0.0000
     15 C          14.9352    5.3645   13.2183 C.3     1  UNL1        0.0000
     16 C          14.2864    2.7525   14.4959 C.3     1  UNL1        0.0000
     17 C          14.2004    1.2276   14.4211 C.3     1  UNL1        0.0000
     18 C          13.8003    3.2479   15.8641 C.3     1  UNL1        0.0000
     19 C          13.0687    6.0347   11.1228 C.3     1  UNL1        0.0000
     20 C          13.8319    5.9009    9.8024 C.3     1  UNL1        0.0000
     21 C          11.6804    6.6253   10.8925 C.3     1  UNL1        0.0000
     22 H          11.6436    3.7698    9.8633 H       1  UNL1        0.0000
     23 H          10.4846    5.3616   13.5077 H       1  UNL1        0.0000
     24 H           9.9785    4.5398   15.0020 H       1  UNL1        0.0000
     25 H          11.6356    4.2905   14.3542 H       1  UNL1        0.0000
     26 H          11.3818    1.8920   14.1265 H       1  UNL1        0.0000
     27 H           9.8606    1.2520   13.4280 H       1  UNL1        0.0000
     28 H           9.8193    2.1040   14.9904 H       1  UNL1        0.0000
     29 H          14.7227    2.8611   10.4154 H       1  UNL1        0.0000
     30 H          16.0796    0.8296   10.1487 H       1  UNL1        0.0000
     31 H          15.1284   -1.3749   10.7220 H       1  UNL1        0.0000
     32 H          12.8128   -1.5236   11.5652 H       1  UNL1        0.0000
     33 H          11.4723    0.5156   11.8404 H       1  UNL1        0.0000
     34 H          15.4913    5.6669   12.3340 H       1  UNL1        0.0000
     35 H          15.6208    4.8826   13.9089 H       1  UNL1        0.0000
     36 H          14.5387    6.2543   13.7069 H       1  UNL1        0.0000
     37 H          15.3525    3.0152   14.3964 H       1  UNL1        0.0000
     38 H          14.5511    0.8807   13.4537 H       1  UNL1        0.0000
     39 H          13.1780    0.8861   14.5576 H       1  UNL1        0.0000
     40 H          14.8197    0.7877   15.1997 H       1  UNL1        0.0000
     41 H          14.4286    2.8381   16.6515 H       1  UNL1        0.0000
     42 H          13.8428    4.3342   15.9163 H       1  UNL1        0.0000
     43 H          12.7748    2.9314   16.0402 H       1  UNL1        0.0000
     44 H          13.6124    6.7387   11.7609 H       1  UNL1        0.0000
     45 H          13.2862    5.2629    9.1145 H       1  UNL1        0.0000
     46 H          14.8135    5.4624    9.9703 H       1  UNL1        0.0000
     47 H          13.9643    6.8790    9.3465 H       1  UNL1        0.0000
     48 H          11.1678    6.7801   11.8381 H       1  UNL1        0.0000
     49 H          11.7733    7.5874   10.3941 H       1  UNL1        0.0000
     50 H          11.0640    5.9724   10.2829 H       1  UNL1        0.0000
@<TRIPOS>BOND
     1    45    20    1
     2    47    20    1
     3    20    46    1
     4    20    19    1
     5    22     5    1
     6    30    10    1
     7    50    21    1
     8    49    21    1
     9    29     9    1
    10    10     9   ar
    11    10    11   ar
    12     9     8   ar
    13    31    11    1
    14    11    12   ar
    15    21    19    1
    16    21    48    1
    17    19    44    1
    18    19     3    1
    19     8     5    1
    20     8    13   ar
    21     5     3    1
    22     5     1    1
    23    12    13   ar
    24    12    32    1
    25    13    33    1
    26     3    14    1
    27     1     2    1
    28    34    15    1
    29    14    15    1
    30    14     4    2
    31    15    36    1
    32    15    35    1
    33     2     7    1
    34     2     6    1
    35    27     7    1
    36     4    16    1
    37    38    17    1
    38    23     6    1
    39     7    26    1
    40     7    28    1
    41     6    25    1
    42     6    24    1
    43    37    16    1
    44    17    16    1
    45    17    39    1
    46    17    40    1
    47    16    18    1
    48    18    42    1
    49    18    43    1
    50    18    41    1
