@<TRIPOS>MOLECULE
1,2
 28 28 0 0 0
SMALL
GASTEIGER

@<TRIPOS>ATOM
      1 N           9.8131    6.9939    5.4776 N.3     1  UNL1        0.0000
      2 N          10.9681    6.2362    5.1825 N.3     1  UNL1        0.0000
      3 SI          9.6939    7.9165    6.9143 Si      1  UNL1        0.0000
      4 O          14.8371   10.7903    8.4228 O.3     1  UNL1        0.0000
      5 C          12.0885    7.0427    4.7051 C.3     1  UNL1        0.0000
      6 C          11.4467    5.4253    6.3010 C.3     1  UNL1        0.0000
      7 C          11.2950    8.8360    7.3722 C.ar    1  UNL1        0.0000
      8 C          11.7210    9.9422    6.6487 C.ar    1  UNL1        0.0000
      9 C          12.8860   10.6247    6.9558 C.ar    1  UNL1        0.0000
     10 C          13.6674   10.2059    8.0257 C.ar    1  UNL1        0.0000
     11 C          13.2508    9.1059    8.7749 C.ar    1  UNL1        0.0000
     12 C          12.0868    8.4437    8.4488 C.ar    1  UNL1        0.0000
     13 C          15.2958   11.9155    7.7175 C.3     1  UNL1        0.0000
     14 H           8.6937    8.9726    6.7038 H       1  UNL1        0.0000
     15 H           9.3673    7.1435    8.1421 H       1  UNL1        0.0000
     16 H          11.7295    7.7876    4.0034 H       1  UNL1        0.0000
     17 H          12.5908    7.5598    5.5343 H       1  UNL1        0.0000
     18 H          12.8115    6.3941    4.2060 H       1  UNL1        0.0000
     19 H          10.6184    4.8459    6.7076 H       1  UNL1        0.0000
     20 H          11.8662    6.0610    7.0916 H       1  UNL1        0.0000
     21 H          12.2242    4.7474    5.9468 H       1  UNL1        0.0000
     22 H          11.1259   10.2865    5.8147 H       1  UNL1        0.0000
     23 H          13.1702   11.4784    6.3593 H       1  UNL1        0.0000
     24 H          13.8592    8.7949    9.6103 H       1  UNL1        0.0000
     25 H          11.7797    7.6000    9.0519 H       1  UNL1        0.0000
     26 H          16.2228   12.2127    8.2056 H       1  UNL1        0.0000
     27 H          14.5800   12.7428    7.7683 H       1  UNL1        0.0000
     28 H          15.5011   11.6780    6.6680 H       1  UNL1        0.0000
@<TRIPOS>BOND
     1    16     5    1
     2    18     5    1
     3     5     2    1
     4     5    17    1
     5     2     1    1
     6     2     6    1
     7     1     3    1
     8    22     8    1
     9    21     6    1
    10     6    19    1
    11     6    20    1
    12    23     9    1
    13     8     9   ar
    14     8     7   ar
    15    28    13    1
    16    14     3    1
    17     3     7    1
    18     3    15    1
    19     9    10   ar
    20     7    12   ar
    21    13    27    1
    22    13    26    1
    23    13     4    1
    24    10     4    1
    25    10    11   ar
    26    12    11   ar
    27    12    25    1
    28    11    24    1
