@<TRIPOS>MOLECULE
1,2
 27 26 0 0 0
SMALL
GASTEIGER

@<TRIPOS>ATOM
      1 N           9.7649    7.0753    2.5139 N.3     1  UNL1       -0.2116
      2 N           9.7971    4.8751    2.6947 N.3     1  UNL1       -0.2116
      3 C          10.3147    5.9497    2.1165 C.3     1  UNL1        0.1330
      4 C          11.4196    5.8401    1.0742 C.3     1  UNL1       -0.0275
      5 C          10.2375    8.3563    2.0191 C.3     1  UNL1        0.0219
      6 C           9.7652    9.4733    2.9539 C.3     1  UNL1       -0.0483
      7 C           9.7840    8.6630    0.5812 C.3     1  UNL1       -0.0483
      8 C          10.3413    3.5533    2.4594 C.3     1  UNL1        0.0219
      9 C           9.2576    2.4927    2.6595 C.3     1  UNL1       -0.0483
     10 C          11.5079    3.2572    3.4151 C.3     1  UNL1       -0.0483
     11 H          11.8686    6.8039    0.8581 H       1  UNL1        0.0262
     12 H          12.2044    5.1701    1.4172 H       1  UNL1        0.0262
     13 H          11.0076    5.4381    0.1482 H       1  UNL1        0.0262
     14 H          11.3452    8.3786    2.0160 H       1  UNL1        0.0472
     15 H           9.8579    9.1511    3.9905 H       1  UNL1        0.0245
     16 H          10.3586   10.3727    2.7969 H       1  UNL1        0.0245
     17 H           8.7239    9.7131    2.7579 H       1  UNL1        0.0245
     18 H          10.0130    7.8392   -0.0894 H       1  UNL1        0.0245
     19 H          10.2952    9.5547    0.2221 H       1  UNL1        0.0245
     20 H           8.7147    8.8441    0.5459 H       1  UNL1        0.0245
     21 H          10.7032    3.4731    1.4206 H       1  UNL1        0.0472
     22 H           8.5097    2.5565    1.8749 H       1  UNL1        0.0245
     23 H           9.7001    1.4988    2.6358 H       1  UNL1        0.0245
     24 H           8.7818    2.6542    3.6251 H       1  UNL1        0.0245
     25 H          12.2682    4.0343    3.3578 H       1  UNL1        0.0245
     26 H          11.9658    2.3008    3.1692 H       1  UNL1        0.0245
     27 H          11.1224    3.2221    4.4320 H       1  UNL1        0.0245
@<TRIPOS>BOND
     1    18     7    1
     2    13     4    1
     3    19     7    1
     4    20     7    1
     5     7     5    1
     6    11     4    1
     7     4    12    1
     8     4     3    1
     9    21     8    1
    10    22     9    1
    11    14     5    1
    12     5     1    1
    13     5     6    1
    14     3     1    1
    15     3     2    1
    16     8     9    1
    17     8     2    1
    18     8    10    1
    19    23     9    1
    20     9    24    1
    21    17     6    1
    22    16     6    1
    23     6    15    1
    24    26    10    1
    25    25    10    1
    26    10    27    1
