@<TRIPOS>MOLECULE
1,2
 46 45 0 0 0
SMALL
GASTEIGER

@<TRIPOS>ATOM
      1 N           8.5141   10.4589    3.0267 N.3     1  UNL1        0.0000
      2 N           8.6430   11.8366    2.9171 N.3     1  UNL1        0.0000
      3 N          11.2523    9.3509    3.2840 N.pl3   1  UNL1        0.5000
      4 N          11.8044   10.8039    1.6812 N.2     1  UNL1        0.5000
      5 SI          9.6441    9.2530    2.5292 Si      1  UNL1        0.0000
      6 C           8.4976   12.3318    1.5501 C.3     1  UNL1        0.0000
      7 C           9.8664   12.3831    3.5092 C.3     1  UNL1        0.0000
      8 C           8.8679    7.6244    3.1655 C.3     1  UNL1        0.0000
      9 C           9.8012    9.0089    0.6376 C.3     1  UNL1        0.0000
     10 C          12.2263   10.0187    2.6001 C.2     1  UNL1        0.0000
     11 C          13.6770    9.7428    2.9103 C.3     1  UNL1        0.0000
     12 C          11.4229    8.7950    4.6242 C.3     1  UNL1        0.0000
     13 C          11.7433    9.8679    5.6700 C.3     1  UNL1        0.0000
     14 C          12.3849    7.6016    4.6889 C.3     1  UNL1        0.0000
     15 C          12.6755   11.5108    0.7717 C.3     1  UNL1        0.0000
     16 C          13.0619   12.8762    1.3555 C.3     1  UNL1        0.0000
     17 C          11.9581   11.7048   -0.5658 C.3     1  UNL1        0.0000
     18 H           8.2893   13.4030    1.5653 H       1  UNL1        0.0000
     19 H           9.4270   12.1445    1.0026 H       1  UNL1        0.0000
     20 H           7.6836   11.7975    1.0620 H       1  UNL1        0.0000
     21 H           9.7825   13.4690    3.5763 H       1  UNL1        0.0000
     22 H          10.7237   12.0954    2.8903 H       1  UNL1        0.0000
     23 H           9.9866   11.9723    4.5155 H       1  UNL1        0.0000
     24 H           9.6075    6.8351    3.2444 H       1  UNL1        0.0000
     25 H           8.4068    7.7582    4.1383 H       1  UNL1        0.0000
     26 H           8.1007    7.2734    2.4840 H       1  UNL1        0.0000
     27 H          10.7914    8.6479    0.3879 H       1  UNL1        0.0000
     28 H           9.6343    9.9178    0.0752 H       1  UNL1        0.0000
     29 H           9.0859    8.2688    0.2927 H       1  UNL1        0.0000
     30 H          14.3254   10.4373    2.3843 H       1  UNL1        0.0000
     31 H          13.8828    9.8316    3.9708 H       1  UNL1        0.0000
     32 H          13.9209    8.7308    2.5912 H       1  UNL1        0.0000
     33 H          10.4370    8.4117    4.8896 H       1  UNL1        0.0000
     34 H          12.0366    9.3886    6.6008 H       1  UNL1        0.0000
     35 H          12.5387   10.5390    5.3572 H       1  UNL1        0.0000
     36 H          10.8514   10.4601    5.8663 H       1  UNL1        0.0000
     37 H          12.1169    6.9778    5.5385 H       1  UNL1        0.0000
     38 H          13.4216    7.8991    4.8113 H       1  UNL1        0.0000
     39 H          12.2938    7.0034    3.7853 H       1  UNL1        0.0000
     40 H          13.5973   10.9436    0.5641 H       1  UNL1        0.0000
     41 H          13.7506   13.3877    0.6870 H       1  UNL1        0.0000
     42 H          13.5383   12.7603    2.3268 H       1  UNL1        0.0000
     43 H          12.1752   13.4931    1.4814 H       1  UNL1        0.0000
     44 H          12.6175   12.2125   -1.2661 H       1  UNL1        0.0000
     45 H          11.0622   12.3066   -0.4361 H       1  UNL1        0.0000
     46 H          11.6761   10.7434   -0.9853 H       1  UNL1        0.0000
@<TRIPOS>BOND
     1    44    17    1
     2    46    17    1
     3    17    45    1
     4    17    15    1
     5    28     9    1
     6    29     9    1
     7    27     9    1
     8    40    15    1
     9     9     5    1
    10    41    16    1
    11    15    16    1
    12    15     4    1
    13    19     6    1
    14    20     6    1
    15    16    43    1
    16    16    42    1
    17     6    18    1
    18     6     2    1
    19     4    10    2
    20    30    11    1
    21    26     8    1
    22     5     1    1
    23     5     8    1
    24     5     3    1
    25    32    11    1
    26    10    11    1
    27    10     3    1
    28    22     7    1
    29    11    31    1
    30     2     1    1
    31     2     7    1
    32     8    24    1
    33     8    25    1
    34     3    12    1
    35     7    21    1
    36     7    23    1
    37    39    14    1
    38    12    14    1
    39    12    33    1
    40    12    13    1
    41    14    38    1
    42    14    37    1
    43    35    13    1
    44    13    36    1
    45    13    34    1
