@<TRIPOS>MOLECULE
1,2
 41 43 0 0 0
SMALL
GASTEIGER

@<TRIPOS>ATOM
      1 N           4.9601    1.4361    9.9404 N.3     1  UNL1        0.0000
      2 N           5.3622    2.4408    9.0605 N.pl3   1  UNL1        0.0000
      3 SI          4.2678   -0.0425    9.3835 Si      1  UNL1        0.0000
      4 C           5.7959    2.0631    7.7538 C.ar    1  UNL1        0.0000
      5 C           5.1823    2.5946    6.6193 C.ar    1  UNL1        0.0000
      6 C           5.5938    2.2108    5.3561 C.ar    1  UNL1        0.0000
      7 C           6.6125    1.2869    5.2005 C.ar    1  UNL1        0.0000
      8 C           7.2122    0.7429    6.3233 C.ar    1  UNL1        0.0000
      9 C           6.8102    1.1210    7.5919 C.ar    1  UNL1        0.0000
     10 C           4.6123    3.6478    9.1107 C.ar    1  UNL1        0.0000
     11 C           3.2852    3.6631    9.5307 C.ar    1  UNL1        0.0000
     12 C           2.5722    4.8495    9.5161 C.ar    1  UNL1        0.0000
     13 C           3.1705    6.0220    9.0846 C.ar    1  UNL1        0.0000
     14 C           4.4967    6.0095    8.6776 C.ar    1  UNL1        0.0000
     15 C           5.2209    4.8324    8.6899 C.ar    1  UNL1        0.0000
     16 C           2.8305    0.2990    8.1736 C.3     1  UNL1        0.0000
     17 C           3.6477   -0.9408   10.9283 C.ar    1  UNL1        0.0000
     18 C           4.4643   -1.8752   11.5564 C.ar    1  UNL1        0.0000
     19 C           4.0269   -2.5806   12.6636 C.ar    1  UNL1        0.0000
     20 C           2.7560   -2.3615   13.1684 C.ar    1  UNL1        0.0000
     21 C           1.9265   -1.4388   12.5542 C.ar    1  UNL1        0.0000
     22 C           2.3704   -0.7427   11.4434 C.ar    1  UNL1        0.0000
     23 H           5.1894   -0.9623    8.6721 H       1  UNL1        0.0000
     24 H           4.3779    3.3086    6.7192 H       1  UNL1        0.0000
     25 H           5.1076    2.6353    4.4904 H       1  UNL1        0.0000
     26 H           6.9338    0.9929    4.2132 H       1  UNL1        0.0000
     27 H           8.0072    0.0207    6.2171 H       1  UNL1        0.0000
     28 H           7.2994    0.6873    8.4544 H       1  UNL1        0.0000
     29 H           2.8250    2.7403    9.8501 H       1  UNL1        0.0000
     30 H           1.5391    4.8549    9.8321 H       1  UNL1        0.0000
     31 H           2.6073    6.9423    9.0657 H       1  UNL1        0.0000
     32 H           4.9676    6.9229    8.3465 H       1  UNL1        0.0000
     33 H           6.2542    4.8097    8.3689 H       1  UNL1        0.0000
     34 H           3.1782    0.8161    7.2844 H       1  UNL1        0.0000
     35 H           2.0339    0.8933    8.6096 H       1  UNL1        0.0000
     36 H           2.3946   -0.6418    7.8563 H       1  UNL1        0.0000
     37 H           5.4581   -2.0450   11.1699 H       1  UNL1        0.0000
     38 H           4.6770   -3.3028   13.1363 H       1  UNL1        0.0000
     39 H           2.4115   -2.9095   14.0335 H       1  UNL1        0.0000
     40 H           0.9312   -1.2657   12.9392 H       1  UNL1        0.0000
     41 H           1.7048   -0.0392   10.9626 H       1  UNL1        0.0000
@<TRIPOS>BOND
     1    26     7    1
     2    25     6    1
     3     7     6   ar
     4     7     8   ar
     5     6     5   ar
     6    27     8    1
     7     8     9   ar
     8     5    24    1
     9     5     4   ar
    10    34    16    1
    11     9     4   ar
    12     9    28    1
    13     4     2    1
    14    36    16    1
    15    16    35    1
    16    16     3    1
    17    32    14    1
    18    33    15    1
    19    23     3    1
    20    14    15   ar
    21    14    13   ar
    22    15    10   ar
    23     2    10    1
    24     2     1    1
    25    31    13    1
    26    13    12   ar
    27    10    11   ar
    28     3     1    1
    29     3    17    1
    30    12    11   ar
    31    12    30    1
    32    11    29    1
    33    17    22   ar
    34    17    18   ar
    35    41    22    1
    36    37    18    1
    37    22    21   ar
    38    18    19   ar
    39    21    40    1
    40    21    20   ar
    41    19    38    1
    42    19    20   ar
    43    20    39    1
