@<TRIPOS>MOLECULE
3,4
 67 67 0 0 0
SMALL
GASTEIGER

@<TRIPOS>ATOM
      1 SI          7.1317   -1.8632    3.7968 Si      1  UNL1        0.0000
      2 SI         10.2331    2.4562    5.4896 Si      1  UNL1        0.0000
      3 N           8.2709   -0.5492    3.9805 N.3     1  UNL1        0.0000
      4 N           9.4854    1.1150    4.6529 N.3     1  UNL1        0.0000
      5 C           6.1918   -1.4229    2.1949 C.3     1  UNL1        0.0000
      6 C           8.2319   -3.4057    3.5714 C.3     1  UNL1        0.0000
      7 C           5.9150   -2.1162    5.2431 C.3     1  UNL1        0.0000
      8 C          12.0954    2.0409    5.4425 C.3     1  UNL1        0.0000
      9 C           9.8303    3.9674    4.3961 C.3     1  UNL1        0.0000
     10 C           9.6641    2.7499    7.2872 C.3     1  UNL1        0.0000
     11 C           8.5110    0.2879    4.9682 C.3     1  UNL1        0.0000
     12 C           7.7850    0.2918    6.2502 C.ar    1  UNL1        0.0000
     13 C           6.6936    1.1478    6.4138 C.ar    1  UNL1        0.0000
     14 C           6.0155    1.1253    7.6228 C.ar    1  UNL1        0.0000
     15 C           6.4155    0.2999    8.6644 C.ar    1  UNL1        0.0000
     16 C           7.5102   -0.5303    8.4753 C.ar    1  UNL1        0.0000
     17 C           8.2007   -0.5628    7.2720 C.ar    1  UNL1        0.0000
     18 C           6.2583    2.0646    5.2928 C.3     1  UNL1        0.0000
     19 C           4.9290    1.5981    4.6932 C.3     1  UNL1        0.0000
     20 C           6.1328    3.5168    5.7611 C.3     1  UNL1        0.0000
     21 C           5.6784    0.3020    9.9814 C.3     1  UNL1        0.0000
     22 C           4.2260   -0.1407    9.7916 C.3     1  UNL1        0.0000
     23 C           5.7460    1.6820   10.6390 C.3     1  UNL1        0.0000
     24 C           9.3893   -1.4759    7.0737 C.3     1  UNL1        0.0000
     25 C          10.6030   -0.9463    7.8416 C.3     1  UNL1        0.0000
     26 C           9.0960   -2.9155    7.5022 C.3     1  UNL1        0.0000
     27 H           5.2841   -2.0072    2.0849 H       1  UNL1        0.0000
     28 H           6.8171   -1.6173    1.3282 H       1  UNL1        0.0000
     29 H           5.9217   -0.3702    2.1620 H       1  UNL1        0.0000
     30 H           7.6500   -4.2604    3.2431 H       1  UNL1        0.0000
     31 H           8.7395   -3.6843    4.4903 H       1  UNL1        0.0000
     32 H           8.9975   -3.2161    2.8228 H       1  UNL1        0.0000
     33 H           5.2728   -2.9586    5.0090 H       1  UNL1        0.0000
     34 H           6.4191   -2.3338    6.1772 H       1  UNL1        0.0000
     35 H           5.2798   -1.2561    5.4179 H       1  UNL1        0.0000
     36 H          12.6657    2.6755    6.1132 H       1  UNL1        0.0000
     37 H          12.2874    1.0059    5.7142 H       1  UNL1        0.0000
     38 H          12.4871    2.1842    4.4394 H       1  UNL1        0.0000
     39 H          10.3756    4.8469    4.7225 H       1  UNL1        0.0000
     40 H          10.1079    3.7676    3.3636 H       1  UNL1        0.0000
     41 H           8.7720    4.2112    4.4041 H       1  UNL1        0.0000
     42 H           9.9696    3.7470    7.5860 H       1  UNL1        0.0000
     43 H          10.1178    2.0515    7.9810 H       1  UNL1        0.0000
     44 H           8.5909    2.6765    7.4146 H       1  UNL1        0.0000
     45 H           5.1611    1.7699    7.7572 H       1  UNL1        0.0000
     46 H           7.8264   -1.1694    9.2861 H       1  UNL1        0.0000
     47 H           7.0155    2.0237    4.5019 H       1  UNL1        0.0000
     48 H           4.6197    2.2839    3.9081 H       1  UNL1        0.0000
     49 H           4.1509    1.5675    5.4535 H       1  UNL1        0.0000
     50 H           5.0332    0.6078    4.2586 H       1  UNL1        0.0000
     51 H           5.9366    4.1595    4.9061 H       1  UNL1        0.0000
     52 H           7.0484    3.8522    6.2411 H       1  UNL1        0.0000
     53 H           5.3110    3.6319    6.4640 H       1  UNL1        0.0000
     54 H           6.1681   -0.4165   10.6478 H       1  UNL1        0.0000
     55 H           3.7233   -0.2023   10.7541 H       1  UNL1        0.0000
     56 H           4.1873   -1.1185    9.3167 H       1  UNL1        0.0000
     57 H           3.6840    0.5651    9.1675 H       1  UNL1        0.0000
     58 H           5.2742    1.6549   11.6186 H       1  UNL1        0.0000
     59 H           6.7812    1.9929   10.7611 H       1  UNL1        0.0000
     60 H           5.2344    2.4257   10.0335 H       1  UNL1        0.0000
     61 H           9.6434   -1.4808    6.0079 H       1  UNL1        0.0000
     62 H          11.4469   -1.6186    7.7063 H       1  UNL1        0.0000
     63 H          10.3834   -0.8714    8.9050 H       1  UNL1        0.0000
     64 H          10.8844    0.0352    7.4710 H       1  UNL1        0.0000
     65 H           9.9321   -3.5538    7.2263 H       1  UNL1        0.0000
     66 H           8.9607   -2.9851    8.5788 H       1  UNL1        0.0000
     67 H           8.2008   -3.2949    7.0160 H       1  UNL1        0.0000
@<TRIPOS>BOND
     1    28     5    1
     2    27     5    1
     3    29     5    1
     4     5     1    1
     5    32     6    1
     6    30     6    1
     7    40     9    1
     8     6     1    1
     9     6    31    1
    10     1     3    1
    11     1     7    1
    12    48    19    1
    13     3    11    1
    14    50    19    1
    15     9    41    1
    16     9    39    1
    17     9     2    1
    18    38     8    1
    19    47    18    1
    20     4    11    1
    21     4     2    1
    22    19    18    1
    23    19    49    1
    24    51    20    1
    25    11    12    1
    26    33     7    1
    27     7    35    1
    28     7    34    1
    29    18    20    1
    30    18    13    1
    31     8     2    1
    32     8    37    1
    33     8    36    1
    34     2    10    1
    35    20    52    1
    36    20    53    1
    37    61    24    1
    38    12    13   ar
    39    12    17   ar
    40    13    14   ar
    41    67    26    1
    42    24    17    1
    43    24    26    1
    44    24    25    1
    45    65    26    1
    46    17    16   ar
    47    10    44    1
    48    10    42    1
    49    10    43    1
    50    64    25    1
    51    26    66    1
    52    14    45    1
    53    14    15   ar
    54    62    25    1
    55    25    63    1
    56    16    15   ar
    57    16    46    1
    58    15    21    1
    59    57    22    1
    60    56    22    1
    61    22    21    1
    62    22    55    1
    63    21    23    1
    64    21    54    1
    65    60    23    1
    66    23    59    1
    67    23    58    1
