@<TRIPOS>MOLECULE
3,4
 89 92 0 0 0
SMALL
GASTEIGER

@<TRIPOS>ATOM
      1 SI          8.0871   -3.1825    2.9567 Si      1  UNL1        0.0000
      2 SI          8.2971    2.9867    3.0224 Si      1  UNL1        0.0000
      3 N           8.8351   -1.6482    2.8276 N.3     1  UNL1        0.0000
      4 N           8.6862    1.3791    2.5962 N.3     1  UNL1        0.0000
      5 C          10.1046   -1.4779    2.1462 C.3     1  UNL1        0.0000
      6 H           9.9933   -1.6897    1.0692 H       1  UNL1        0.0000
      7 H          10.8386   -2.2005    2.5346 H       1  UNL1        0.0000
      8 C          10.7125   -0.0674    2.2977 C.3     1  UNL1        0.0000
      9 C           9.7652    1.0116    1.7074 C.3     1  UNL1        0.0000
     10 H          10.3769    1.8924    1.4745 H       1  UNL1        0.0000
     11 H           9.3477    0.6303    0.7552 H       1  UNL1        0.0000
     12 C          10.9886    0.2188    3.7776 C.3     1  UNL1        0.0000
     13 H          11.7673   -0.4480    4.1446 H       1  UNL1        0.0000
     14 H          10.0793    0.0610    4.3678 H       1  UNL1        0.0000
     15 H          11.3199    1.2473    3.9088 H       1  UNL1        0.0000
     16 C          12.0290   -0.0288    1.5130 C.3     1  UNL1        0.0000
     17 H          12.6957   -0.8216    1.8448 H       1  UNL1        0.0000
     18 H          12.5298    0.9245    1.6636 H       1  UNL1        0.0000
     19 H          11.8460   -0.1592    0.4488 H       1  UNL1        0.0000
     20 C           8.9139   -4.2518    4.3559 C.3     1  UNL1        0.0000
     21 C           7.9008   -5.1731    5.0370 C.3     1  UNL1        0.0000
     22 H           7.4586   -5.8652    4.3249 H       1  UNL1        0.0000
     23 H           7.0952   -4.6003    5.4900 H       1  UNL1        0.0000
     24 H           8.3855   -5.7568    5.8196 H       1  UNL1        0.0000
     25 C          10.0539   -5.0997    3.7867 C.3     1  UNL1        0.0000
     26 H           9.6932   -5.8097    3.0488 H       1  UNL1        0.0000
     27 H          10.5456   -5.6568    4.5842 H       1  UNL1        0.0000
     28 H          10.7980   -4.4694    3.3054 H       1  UNL1        0.0000
     29 C           9.5155   -3.3116    5.4070 C.3     1  UNL1        0.0000
     30 H          10.2695   -2.6678    4.9587 H       1  UNL1        0.0000
     31 H           9.9876   -3.8895    6.2020 H       1  UNL1        0.0000
     32 H           8.7635   -2.6688    5.8607 H       1  UNL1        0.0000
     33 C           7.6846    4.1262    1.5667 C.3     1  UNL1        0.0000
     34 C           6.3991    3.5434    0.9674 C.3     1  UNL1        0.0000
     35 H           6.5392    2.5040    0.6730 H       1  UNL1        0.0000
     36 H           6.1109    4.1091    0.0811 H       1  UNL1        0.0000
     37 H           5.5788    3.6006    1.6799 H       1  UNL1        0.0000
     38 C           7.3750    5.5384    2.0691 C.3     1  UNL1        0.0000
     39 H           8.2623    6.0255    2.4625 H       1  UNL1        0.0000
     40 H           6.6313    5.5043    2.8626 H       1  UNL1        0.0000
     41 H           6.9810    6.1507    1.2582 H       1  UNL1        0.0000
     42 C           8.7230    4.1898    0.4456 C.3     1  UNL1        0.0000
     43 H           9.6869    4.5389    0.8052 H       1  UNL1        0.0000
     44 H           8.3903    4.8670   -0.3413 H       1  UNL1        0.0000
     45 H           8.8608    3.2041    0.0086 H       1  UNL1        0.0000
     46 C           7.9042   -4.1181    1.2975 C.ar    1  UNL1        0.0000
     47 C           7.9059   -3.3675    0.1217 C.ar    1  UNL1        0.0000
     48 H           7.9977   -2.2920    0.1846 H       1  UNL1        0.0000
     49 C           7.7609   -3.9666   -1.1164 C.ar    1  UNL1        0.0000
     50 H           7.7646   -3.3615   -2.0114 H       1  UNL1        0.0000
     51 C           7.6021   -5.3392   -1.2074 C.ar    1  UNL1        0.0000
     52 H           7.4897   -5.8117   -2.1725 H       1  UNL1        0.0000
     53 C           7.5744   -6.1005   -0.0519 C.ar    1  UNL1        0.0000
     54 H           7.4329   -7.1703   -0.1128 H       1  UNL1        0.0000
     55 C           7.7219   -5.4935    1.1832 C.ar    1  UNL1        0.0000
     56 H           7.6791   -6.1035    2.0728 H       1  UNL1        0.0000
     57 C           6.2963   -2.6347    3.3918 C.ar    1  UNL1        0.0000
     58 C           5.9868   -2.0638    4.6307 C.ar    1  UNL1        0.0000
     59 H           6.7046   -2.1124    5.4432 H       1  UNL1        0.0000
     60 C           4.7195   -1.5531    4.8935 C.ar    1  UNL1        0.0000
     61 H           4.5012   -1.1395    5.8698 H       1  UNL1        0.0000
     62 C           3.7304   -1.6242    3.9231 C.ar    1  UNL1        0.0000
     63 H           2.7384   -1.2468    4.1281 H       1  UNL1        0.0000
     64 C           4.0081   -2.2206    2.7034 C.ar    1  UNL1        0.0000
     65 H           3.2356   -2.3019    1.9533 H       1  UNL1        0.0000
     66 C           5.2770   -2.7119    2.4430 C.ar    1  UNL1        0.0000
     67 H           5.4769   -3.1796    1.4896 H       1  UNL1        0.0000
     68 C           9.7220    3.7555    4.0507 C.ar    1  UNL1        0.0000
     69 C          10.0219    3.1731    5.2843 C.ar    1  UNL1        0.0000
     70 H           9.4252    2.3446    5.6365 H       1  UNL1        0.0000
     71 C          11.0671    3.6324    6.0650 C.ar    1  UNL1        0.0000
     72 H          11.2724    3.1633    7.0163 H       1  UNL1        0.0000
     73 C          11.8495    4.6886    5.6284 C.ar    1  UNL1        0.0000
     74 H          12.6655    5.0525    6.2360 H       1  UNL1        0.0000
     75 C          11.5789    5.2719    4.4035 C.ar    1  UNL1        0.0000
     76 H          12.1861    6.0929    4.0490 H       1  UNL1        0.0000
     77 C          10.5304    4.8059    3.6281 C.ar    1  UNL1        0.0000
     78 H          10.3453    5.2770    2.6753 H       1  UNL1        0.0000
     79 C           6.8053    2.7235    4.1918 C.ar    1  UNL1        0.0000
     80 C           6.7301    3.3523    5.4296 C.ar    1  UNL1        0.0000
     81 H           7.5153    4.0338    5.7209 H       1  UNL1        0.0000
     82 C           5.6756    3.1212    6.2965 C.ar    1  UNL1        0.0000
     83 H           5.6517    3.6108    7.2590 H       1  UNL1        0.0000
     84 C           4.6493    2.2682    5.9294 C.ar    1  UNL1        0.0000
     85 H           3.8215    2.0906    6.6002 H       1  UNL1        0.0000
     86 C           4.6803    1.6602    4.6843 C.ar    1  UNL1        0.0000
     87 H           3.8488    1.0485    4.3595 H       1  UNL1        0.0000
     88 C           5.7555    1.8724    3.8285 C.ar    1  UNL1        0.0000
     89 H           5.7041    1.4646    2.8177 H       1  UNL1        0.0000
@<TRIPOS>BOND
     1    52    51    1
     2    50    49    1
     3    51    49   ar
     4    51    53   ar
     5    49    47   ar
     6    44    42    1
     7    54    53    1
     8    53    55   ar
     9    45    42    1
    10    36    34    1
    11    47    48    1
    12    47    46   ar
    13    42    43    1
    14    42    33    1
    15    19    16    1
    16    35    34    1
    17    11     9    1
    18    34    33    1
    19    34    37    1
    20     6     5    1
    21    55    46   ar
    22    55    56    1
    23    41    38    1
    24    46     1    1
    25    10     9    1
    26    67    66    1
    27    16    18    1
    28    16    17    1
    29    16     8    1
    30    33    38    1
    31    33     2    1
    32     9     8    1
    33     9     4    1
    34    65    64    1
    35    38    39    1
    36    38    40    1
    37     5     8    1
    38     5     7    1
    39     5     3    1
    40     8    12    1
    41    66    64   ar
    42    66    57   ar
    43     4     2    1
    44    78    77    1
    45    64    62   ar
    46    89    88    1
    47     3     1    1
    48     1    57    1
    49     1    20    1
    50     2    68    1
    51     2    79    1
    52    26    25    1
    53    28    25    1
    54    57    58   ar
    55    77    68   ar
    56    77    75   ar
    57    12    15    1
    58    12    13    1
    59    12    14    1
    60    25    20    1
    61    25    27    1
    62    88    79   ar
    63    88    86   ar
    64    62    63    1
    65    62    60   ar
    66    76    75    1
    67    68    69   ar
    68    79    80   ar
    69    22    21    1
    70    20    21    1
    71    20    29    1
    72    87    86    1
    73    75    73   ar
    74    58    60   ar
    75    58    59    1
    76    86    84   ar
    77    60    61    1
    78    30    29    1
    79    21    23    1
    80    21    24    1
    81    69    70    1
    82    69    71   ar
    83    29    32    1
    84    29    31    1
    85    80    81    1
    86    80    82   ar
    87    73    71   ar
    88    73    74    1
    89    84    82   ar
    90    84    85    1
    91    71    72    1
    92    82    83    1
