@<TRIPOS>MOLECULE
3,4
 89 92 0 0 0
SMALL
GASTEIGER

@<TRIPOS>ATOM
      1 SI          5.5245    1.6545   12.2698 Si      1  UNL1        0.0000
      2 SI          0.7182    5.3634   12.3810 Si      1  UNL1        0.0000
      3 N           1.6531    3.9521   12.7537 N.3     1  UNL1        0.0000
      4 N           3.9468    2.1944   12.7482 N.3     1  UNL1        0.0000
      5 C           1.2606    3.1090   13.8549 C.3     1  UNL1        0.0000
      6 H           0.7232    2.2236   13.4669 H       1  UNL1        0.0000
      7 H           0.5772    3.6522   14.5195 H       1  UNL1        0.0000
      8 C           2.4533    2.6212   14.7053 C.3     1  UNL1        0.0000
      9 C           3.3006    1.6137   13.8996 C.3     1  UNL1        0.0000
     10 H           4.0534    1.1910   14.5780 H       1  UNL1        0.0000
     11 H           2.6387    0.7897   13.5740 H       1  UNL1        0.0000
     12 C           3.3127    3.8159   15.1286 C.3     1  UNL1        0.0000
     13 H           2.7224    4.5103   15.7236 H       1  UNL1        0.0000
     14 H           3.6806    4.3420   14.2428 H       1  UNL1        0.0000
     15 H           4.1636    3.4779   15.7173 H       1  UNL1        0.0000
     16 C           1.9068    1.9078   15.9461 C.3     1  UNL1        0.0000
     17 H           1.2841    1.0621   15.6620 H       1  UNL1        0.0000
     18 H           1.3073    2.5914   16.5423 H       1  UNL1        0.0000
     19 H           2.7238    1.5417   16.5631 H       1  UNL1        0.0000
     20 C          -1.1342    5.0157   11.8881 C.3     1  UNL1        0.0000
     21 C          -1.8582    6.3439   11.6506 C.3     1  UNL1        0.0000
     22 H          -1.3448    6.9275   10.8896 H       1  UNL1        0.0000
     23 H          -1.9023    6.9398   12.5576 H       1  UNL1        0.0000
     24 H          -2.8776    6.1622   11.3113 H       1  UNL1        0.0000
     25 C          -1.1701    4.2137   10.5813 C.3     1  UNL1        0.0000
     26 H          -0.7567    4.7941    9.7591 H       1  UNL1        0.0000
     27 H          -2.1989    3.9575   10.3281 H       1  UNL1        0.0000
     28 H          -0.6043    3.2878   10.6728 H       1  UNL1        0.0000
     29 C          -1.8863    4.2092   12.9481 C.3     1  UNL1        0.0000
     30 H          -1.8489    4.6871   13.9234 H       1  UNL1        0.0000
     31 H          -1.4611    3.2134   13.0405 H       1  UNL1        0.0000
     32 H          -2.9337    4.1038   12.6646 H       1  UNL1        0.0000
     33 C           5.6166   -0.2387   11.8297 C.3     1  UNL1        0.0000
     34 C           4.5592   -0.5836   10.7737 C.3     1  UNL1        0.0000
     35 H           4.8117   -0.1381    9.8143 H       1  UNL1        0.0000
     36 H           3.5710   -0.2347   11.0713 H       1  UNL1        0.0000
     37 H           4.5090   -1.6637   10.6349 H       1  UNL1        0.0000
     38 C           6.9916   -0.5774   11.2463 C.3     1  UNL1        0.0000
     39 H           7.2003    0.0403   10.3753 H       1  UNL1        0.0000
     40 H           7.0233   -1.6226   10.9399 H       1  UNL1        0.0000
     41 H           7.7840   -0.4122   11.9701 H       1  UNL1        0.0000
     42 C           5.3530   -1.1169   13.0551 C.3     1  UNL1        0.0000
     43 H           4.3266   -1.0005   13.3928 H       1  UNL1        0.0000
     44 H           6.0107   -0.8664   13.8825 H       1  UNL1        0.0000
     45 H           5.5082   -2.1664   12.8044 H       1  UNL1        0.0000
     46 C           0.9538    6.5512   13.8614 C.ar    1  UNL1        0.0000
     47 C           2.2386    7.0486   14.0878 C.ar    1  UNL1        0.0000
     48 H           3.0350    6.7806   13.4080 H       1  UNL1        0.0000
     49 C           2.5082    7.8791   15.1601 C.ar    1  UNL1        0.0000
     50 H           3.5104    8.2530   15.3115 H       1  UNL1        0.0000
     51 C           1.4966    8.2326   16.0380 C.ar    1  UNL1        0.0000
     52 H           1.7033    8.8828   16.8758 H       1  UNL1        0.0000
     53 C           0.2177    7.7461   15.8339 C.ar    1  UNL1        0.0000
     54 H          -0.5787    8.0142   16.5137 H       1  UNL1        0.0000
     55 C          -0.0451    6.9144   14.7583 C.ar    1  UNL1        0.0000
     56 H          -1.0508    6.5476   14.6209 H       1  UNL1        0.0000
     57 C           1.5132    6.1583   10.8453 C.ar    1  UNL1        0.0000
     58 C           1.6820    7.5366   10.7748 C.ar    1  UNL1        0.0000
     59 H           1.3639    8.1474   11.6071 H       1  UNL1        0.0000
     60 C           2.2556    8.1371    9.6678 C.ar    1  UNL1        0.0000
     61 H           2.3846    9.2095    9.6418 H       1  UNL1        0.0000
     62 C           2.6645    7.3639    8.5960 C.ar    1  UNL1        0.0000
     63 H           3.1131    7.8268    7.7292 H       1  UNL1        0.0000
     64 C           2.4906    5.9904    8.6383 C.ar    1  UNL1        0.0000
     65 H           2.7863    5.3861    7.7920 H       1  UNL1        0.0000
     66 C           1.9252    5.3934    9.7539 C.ar    1  UNL1        0.0000
     67 H           1.7619    4.3135    9.7468 H       1  UNL1        0.0000
     68 C           6.7564    2.2281   13.6155 C.ar    1  UNL1        0.0000
     69 C           6.7039    3.5716   13.9925 C.ar    1  UNL1        0.0000
     70 H           5.9996    4.2291   13.5021 H       1  UNL1        0.0000
     71 C           7.5436    4.0784   14.9672 C.ar    1  UNL1        0.0000
     72 H           7.4825    5.1223   15.2384 H       1  UNL1        0.0000
     73 C           8.4634    3.2519   15.5913 C.ar    1  UNL1        0.0000
     74 H           9.1220    3.6442   16.3525 H       1  UNL1        0.0000
     75 C           8.5356    1.9189   15.2279 C.ar    1  UNL1        0.0000
     76 H           9.2530    1.2658   15.7043 H       1  UNL1        0.0000
     77 C           7.6907    1.4177   14.2521 C.ar    1  UNL1        0.0000
     78 H           7.7717    0.3756   13.9853 H       1  UNL1        0.0000
     79 C           5.8421    2.6859   10.6988 C.ar    1  UNL1        0.0000
     80 C           6.9614    3.5032   10.5837 C.ar    1  UNL1        0.0000
     81 H           7.7097    3.4835   11.3626 H       1  UNL1        0.0000
     82 C           7.1263    4.3489    9.5006 C.ar    1  UNL1        0.0000
     83 H           7.9983    4.9836    9.4414 H       1  UNL1        0.0000
     84 C           6.1712    4.3917    8.4994 C.ar    1  UNL1        0.0000
     85 H           6.2921    5.0602    7.6595 H       1  UNL1        0.0000
     86 C           5.0659    3.5606    8.5756 C.ar    1  UNL1        0.0000
     87 H           4.3389    3.5463    7.7736 H       1  UNL1        0.0000
     88 C           4.8997    2.7195    9.6675 C.ar    1  UNL1        0.0000
     89 H           4.0722    2.0149    9.6587 H       1  UNL1        0.0000
@<TRIPOS>BOND
     1    85    84    1
     2    63    62    1
     3    87    86    1
     4    65    64    1
     5    84    86   ar
     6    84    82   ar
     7    86    88   ar
     8    62    64   ar
     9    62    60   ar
    10    64    66   ar
    11    83    82    1
    12    82    80   ar
    13    61    60    1
    14    89    88    1
    15    88    79   ar
    16    60    58   ar
    17    67    66    1
    18    66    57   ar
    19    26    25    1
    20    35    34    1
    21    27    25    1
    22    39    38    1
    23    25    28    1
    24    25    20    1
    25    80    79   ar
    26    80    81    1
    27    37    34    1
    28    79     1    1
    29    34    36    1
    30    34    33    1
    31    58    57   ar
    32    58    59    1
    33    57     2    1
    34    22    21    1
    35    40    38    1
    36    38    33    1
    37    38    41    1
    38    24    21    1
    39    21    20    1
    40    21    23    1
    41    33     1    1
    42    33    42    1
    43    20     2    1
    44    20    29    1
    45     1     4    1
    46     1    68    1
    47     2     3    1
    48     2    46    1
    49    32    29    1
    50     4     9    1
    51     3     5    1
    52    45    42    1
    53    29    31    1
    54    29    30    1
    55    42    43    1
    56    42    44    1
    57    48    47    1
    58     6     5    1
    59    70    69    1
    60    11     9    1
    61    68    69   ar
    62    68    77   ar
    63     5     7    1
    64     5     8    1
    65    46    47   ar
    66    46    55   ar
    67     9    10    1
    68     9     8    1
    69    78    77    1
    70    69    71   ar
    71    47    49   ar
    72    14    12    1
    73    77    75   ar
    74    56    55    1
    75     8    12    1
    76     8    16    1
    77    55    53   ar
    78    71    72    1
    79    71    73   ar
    80    12    15    1
    81    12    13    1
    82    49    50    1
    83    49    51   ar
    84    75    73   ar
    85    75    76    1
    86    73    74    1
    87    17    16    1
    88    53    51   ar
    89    53    54    1
    90    16    18    1
    91    16    19    1
    92    51    52    1
