@<TRIPOS>MOLECULE
2,5
 64 65 0 0 0
SMALL
GASTEIGER

@<TRIPOS>ATOM
      1 SI          5.9289   17.5070    0.0812 Si      1  UNL1        0.0000
      2 N           5.7659   15.7560   -2.9048 N.3     1  UNL1        0.0000
      3 C           4.9155   16.0134   -1.9324 C.3     1  UNL1        0.0000
      4 SI          3.7352   18.4326   -1.9752 Si      1  UNL1        0.0000
      5 N           4.1050   15.0322   -1.5994 N.3     1  UNL1        0.0000
      6 C           6.6981   16.7572   -3.3746 C.3     1  UNL1        0.0000
      7 H           6.5429   17.7078   -2.8474 H       1  UNL1        0.0000
      8 N           4.8649   17.2844   -1.2910 N.3     1  UNL1        0.0000
      9 C           6.4920   16.9884   -4.8763 C.3     1  UNL1        0.0000
     10 H           5.4824   17.3719   -5.0375 H       1  UNL1        0.0000
     11 H           6.5806   16.0230   -5.3816 H       1  UNL1        0.0000
     12 C           7.5121   17.9706   -5.4424 C.3     1  UNL1        0.0000
     13 H           7.3483   18.0952   -6.5158 H       1  UNL1        0.0000
     14 H           7.3794   18.9472   -4.9691 H       1  UNL1        0.0000
     15 C           8.9316   17.4768   -5.1871 C.3     1  UNL1        0.0000
     16 H           9.0809   16.5258   -5.7030 H       1  UNL1        0.0000
     17 H           9.6554   18.1930   -5.5834 H       1  UNL1        0.0000
     18 C           9.1531   17.2816   -3.6912 C.3     1  UNL1        0.0000
     19 H           9.0461   18.2443   -3.1845 H       1  UNL1        0.0000
     20 H          10.1678   16.9191   -3.5071 H       1  UNL1        0.0000
     21 C           8.1398   16.2908   -3.1272 C.3     1  UNL1        0.0000
     22 H           8.2738   15.3190   -3.6101 H       1  UNL1        0.0000
     23 H           8.2928   16.1628   -2.0533 H       1  UNL1        0.0000
     24 C           3.1712   15.1607   -0.5030 C.3     1  UNL1        0.0000
     25 H           3.2904   16.1349   -0.0092 H       1  UNL1        0.0000
     26 C           3.4273   14.0567    0.5316 C.3     1  UNL1        0.0000
     27 H           4.4445   14.1529    0.9131 H       1  UNL1        0.0000
     28 H           3.3467   13.0883    0.0324 H       1  UNL1        0.0000
     29 C           2.4248   14.1331    1.6784 C.3     1  UNL1        0.0000
     30 H           2.6232   13.3358    2.3990 H       1  UNL1        0.0000
     31 H           2.5381   15.0880    2.1985 H       1  UNL1        0.0000
     32 C           0.9995   14.0122    1.1494 C.3     1  UNL1        0.0000
     33 H           0.8732   13.0377    0.6725 H       1  UNL1        0.0000
     34 H           0.2853   14.0790    1.9738 H       1  UNL1        0.0000
     35 C           0.7247   15.1127    0.1300 C.3     1  UNL1        0.0000
     36 H           0.7983   16.0849    0.6249 H       1  UNL1        0.0000
     37 H          -0.2918   15.0147   -0.2604 H       1  UNL1        0.0000
     38 C           1.7290   15.0460   -1.0163 C.3     1  UNL1        0.0000
     39 H           1.5396   15.8507   -1.7298 H       1  UNL1        0.0000
     40 H           1.6256   14.0936   -1.5427 H       1  UNL1        0.0000
     41 C           4.9530   18.1569    1.5882 C.3     1  UNL1        0.0000
     42 H           4.0536   17.5834    1.7861 H       1  UNL1        0.0000
     43 H           4.6639   19.1936    1.4523 H       1  UNL1        0.0000
     44 H           5.5737   18.1108    2.4776 H       1  UNL1        0.0000
     45 C           7.3092   18.7845   -0.2628 C.3     1  UNL1        0.0000
     46 H           8.0358   18.4264   -0.9846 H       1  UNL1        0.0000
     47 H           7.8441   19.0025    0.6568 H       1  UNL1        0.0000
     48 H           6.9097   19.7214   -0.6351 H       1  UNL1        0.0000
     49 C           6.7459   15.8418    0.5295 C.3     1  UNL1        0.0000
     50 H           6.4543   15.0736   -0.1804 H       1  UNL1        0.0000
     51 H           6.4540   15.5101    1.5216 H       1  UNL1        0.0000
     52 H           7.8298   15.9155    0.5197 H       1  UNL1        0.0000
     53 C           2.3361   18.8953   -0.7588 C.3     1  UNL1        0.0000
     54 H           1.7438   18.0374   -0.4593 H       1  UNL1        0.0000
     55 H           1.6643   19.6099   -1.2251 H       1  UNL1        0.0000
     56 H           2.7244   19.3578    0.1415 H       1  UNL1        0.0000
     57 C           4.6232   20.0590   -2.4375 C.3     1  UNL1        0.0000
     58 H           5.5008   19.8960   -3.0547 H       1  UNL1        0.0000
     59 H           4.9350   20.6016   -1.5513 H       1  UNL1        0.0000
     60 H           3.9494   20.7063   -2.9900 H       1  UNL1        0.0000
     61 C           2.9357   17.7008   -3.5481 C.3     1  UNL1        0.0000
     62 H           3.2869   18.2068   -4.4431 H       1  UNL1        0.0000
     63 H           1.8540   17.8017   -3.5232 H       1  UNL1        0.0000
     64 H           3.1769   16.6461   -3.6402 H       1  UNL1        0.0000
@<TRIPOS>BOND
     1    13    12    1
     2    16    15    1
     3    17    15    1
     4    12    15    1
     5    12    14    1
     6    12     9    1
     7    11     9    1
     8    15    18    1
     9    10     9    1
    10     9     6    1
    11    62    61    1
    12    18    20    1
    13    18    19    1
    14    18    21    1
    15    64    61    1
    16    22    21    1
    17    61    63    1
    18    61     4    1
    19     6    21    1
    20     6     2    1
    21     6     7    1
    22    21    23    1
    23    58    57    1
    24    60    57    1
    25     2     3    1
    26    57     4    1
    27    57    59    1
    28     4     8    1
    29     4    53    1
    30     3     5    1
    31     3     8    1
    32    39    38    1
    33     5    24    1
    34    40    38    1
    35     8     1    1
    36    55    53    1
    37    38    24    1
    38    38    35    1
    39    46    45    1
    40    53    54    1
    41    53    56    1
    42    48    45    1
    43    24    25    1
    44    24    26    1
    45    45     1    1
    46    45    47    1
    47    37    35    1
    48    50    49    1
    49    28    26    1
    50     1    49    1
    51     1    41    1
    52    35    36    1
    53    35    32    1
    54    52    49    1
    55    49    51    1
    56    26    27    1
    57    26    29    1
    58    33    32    1
    59    32    29    1
    60    32    34    1
    61    43    41    1
    62    41    42    1
    63    41    44    1
    64    29    31    1
    65    29    30    1
