@<TRIPOS>MOLECULE
3,4
 95 98 0 0 0
SMALL
GASTEIGER

@<TRIPOS>ATOM
      1 SI          8.5462    8.5760    4.6509 Si      1  UNL1        0.0000
      2 N           7.1157    8.4875    2.1684 N.2     1  UNL1        0.5000
      3 N           7.0835    7.6441    4.2569 N.pl3   1  UNL1        0.5000
      4 N           8.4752    7.7492    6.2256 N.pl3   1  UNL1        0.5000
      5 N          10.2850    8.9198    6.8704 N.2     1  UNL1        0.5000
      6 C           6.6160    8.8405    0.9292 C.ar    1  UNL1        0.0000
      7 C           7.3014    8.4015   -0.2166 C.ar    1  UNL1        0.0000
      8 C           6.8798    8.8262   -1.4640 C.ar    1  UNL1        0.0000
      9 H           7.3996    8.4893   -2.3488 H       1  UNL1        0.0000
     10 C           5.8003    9.6807   -1.5945 C.ar    1  UNL1        0.0000
     11 H           5.4768   10.0021   -2.5737 H       1  UNL1        0.0000
     12 C           5.1468   10.1322   -0.4641 C.ar    1  UNL1        0.0000
     13 H           4.3164   10.8142   -0.5729 H       1  UNL1        0.0000
     14 C           5.5350    9.7296    0.8045 C.ar    1  UNL1        0.0000
     15 C           8.4971    7.4872   -0.0679 C.3     1  UNL1        0.0000
     16 H           8.5569    7.1912    0.9852 H       1  UNL1        0.0000
     17 C           9.7766    8.2477   -0.4252 C.3     1  UNL1        0.0000
     18 H           9.8615    9.1450    0.1836 H       1  UNL1        0.0000
     19 H           9.7643    8.5451   -1.4714 H       1  UNL1        0.0000
     20 H          10.6517    7.6239   -0.2534 H       1  UNL1        0.0000
     21 C           8.3726    6.2230   -0.9204 C.3     1  UNL1        0.0000
     22 H           7.4477    5.6937   -0.6994 H       1  UNL1        0.0000
     23 H           9.2069    5.5537   -0.7190 H       1  UNL1        0.0000
     24 H           8.3800    6.4638   -1.9805 H       1  UNL1        0.0000
     25 C           4.8346   10.2927    2.0205 C.3     1  UNL1        0.0000
     26 H           5.2523    9.8248    2.9183 H       1  UNL1        0.0000
     27 C           5.0904   11.7991    2.1248 C.3     1  UNL1        0.0000
     28 H           4.6380   12.1957    3.0313 H       1  UNL1        0.0000
     29 H           4.6686   12.3232    1.2704 H       1  UNL1        0.0000
     30 H           6.1594   11.9981    2.1543 H       1  UNL1        0.0000
     31 C           3.3326   10.0027    1.9863 C.3     1  UNL1        0.0000
     32 H           2.8704   10.3137    2.9209 H       1  UNL1        0.0000
     33 H           3.1517    8.9389    1.8479 H       1  UNL1        0.0000
     34 H           2.8518   10.5406    1.1729 H       1  UNL1        0.0000
     35 C           6.5152    7.7748    3.0504 C.2     1  UNL1        0.0000
     36 C           5.2338    7.0482    2.8179 C.ar    1  UNL1        0.0000
     37 C           4.2157    7.1101    3.7676 C.ar    1  UNL1        0.0000
     38 H           4.3415    7.7256    4.6532 H       1  UNL1        0.0000
     39 C           3.0230    6.4414    3.5509 C.ar    1  UNL1        0.0000
     40 H           2.2311    6.5053    4.2833 H       1  UNL1        0.0000
     41 C           2.8380    5.7028    2.3931 C.ar    1  UNL1        0.0000
     42 H           1.9074    5.1808    2.2269 H       1  UNL1        0.0000
     43 C           3.8448    5.6452    1.4436 C.ar    1  UNL1        0.0000
     44 H           3.7003    5.0778    0.5361 H       1  UNL1        0.0000
     45 C           5.0361    6.3176    1.6507 C.ar    1  UNL1        0.0000
     46 H           5.8197    6.2765    0.9100 H       1  UNL1        0.0000
     47 C           8.1489   10.4371    4.7978 C.3     1  UNL1        0.0000
     48 H           8.9838   10.9716    5.2371 H       1  UNL1        0.0000
     49 H           7.2740   10.5915    5.4289 H       1  UNL1        0.0000
     50 H           7.9434   10.8607    3.8208 H       1  UNL1        0.0000
     51 C          10.0720    8.0879    3.6219 C.3     1  UNL1        0.0000
     52 H          10.9640    8.5342    4.0435 H       1  UNL1        0.0000
     53 H           9.9598    8.4404    2.6043 H       1  UNL1        0.0000
     54 H          10.2071    7.0090    3.5975 H       1  UNL1        0.0000
     55 C           9.3622    8.0811    7.1733 C.2     1  UNL1        0.0000
     56 C           9.2366    7.4104    8.4991 C.ar    1  UNL1        0.0000
     57 C          10.3567    6.8604    9.1136 C.ar    1  UNL1        0.0000
     58 H          11.3161    6.9234    8.6236 H       1  UNL1        0.0000
     59 C          10.2402    6.2335   10.3415 C.ar    1  UNL1        0.0000
     60 H          11.1142    5.8068   10.8110 H       1  UNL1        0.0000
     61 C           9.0084    6.1572   10.9702 C.ar    1  UNL1        0.0000
     62 H           8.9205    5.6714   11.9307 H       1  UNL1        0.0000
     63 C           7.8916    6.7158   10.3698 C.ar    1  UNL1        0.0000
     64 H           6.9339    6.6760   10.8686 H       1  UNL1        0.0000
     65 C           8.0004    7.3382    9.1378 C.ar    1  UNL1        0.0000
     66 H           7.1334    7.8159    8.6914 H       1  UNL1        0.0000
     67 C          11.1803    9.4972    7.7505 C.ar    1  UNL1        0.0000
     68 C          12.5529    9.2670    7.5567 C.ar    1  UNL1        0.0000
     69 C          13.4711    9.9239    8.3563 C.ar    1  UNL1        0.0000
     70 H          14.5274    9.7497    8.2142 H       1  UNL1        0.0000
     71 C          13.0541   10.8055    9.3369 C.ar    1  UNL1        0.0000
     72 H          13.7795   11.3097    9.9584 H       1  UNL1        0.0000
     73 C          11.7048   11.0476    9.5079 C.ar    1  UNL1        0.0000
     74 H          11.3878   11.7505   10.2642 H       1  UNL1        0.0000
     75 C          10.7511   10.4098    8.7295 C.ar    1  UNL1        0.0000
     76 C          13.0034    8.3217    6.4656 C.3     1  UNL1        0.0000
     77 H          12.1130    7.8089    6.0850 H       1  UNL1        0.0000
     78 C          13.9885    7.2681    6.9751 C.3     1  UNL1        0.0000
     79 H          14.2024    6.5465    6.1889 H       1  UNL1        0.0000
     80 H          13.5787    6.7335    7.8299 H       1  UNL1        0.0000
     81 H          14.9271    7.7243    7.2791 H       1  UNL1        0.0000
     82 C          13.6228    9.1212    5.3163 C.3     1  UNL1        0.0000
     83 H          12.9139    9.8606    4.9504 H       1  UNL1        0.0000
     84 H          13.8964    8.4609    4.4955 H       1  UNL1        0.0000
     85 H          14.5162    9.6421    5.6535 H       1  UNL1        0.0000
     86 C           9.2878   10.7465    8.9082 C.3     1  UNL1        0.0000
     87 H           8.6932   10.1159    8.2385 H       1  UNL1        0.0000
     88 C           8.8264   10.4860   10.3439 C.3     1  UNL1        0.0000
     89 H           9.0741    9.4710   10.6472 H       1  UNL1        0.0000
     90 H           7.7489   10.6169   10.4198 H       1  UNL1        0.0000
     91 H           9.3031   11.1760   11.0358 H       1  UNL1        0.0000
     92 C           9.0282   12.2040    8.5161 C.3     1  UNL1        0.0000
     93 H           9.3483   12.3809    7.4918 H       1  UNL1        0.0000
     94 H           9.5730   12.8833    9.1676 H       1  UNL1        0.0000
     95 H           7.9665   12.4293    8.5919 H       1  UNL1        0.0000
@<TRIPOS>BOND
     1    11    10    1
     2     9     8    1
     3    24    21    1
     4    10     8   ar
     5    10    12   ar
     6    19    17    1
     7     8     7   ar
     8    21    23    1
     9    21    22    1
    10    21    15    1
    11    13    12    1
    12    12    14   ar
    13    17    20    1
    14    17    15    1
    15    17    18    1
    16     7    15    1
    17     7     6   ar
    18    15    16    1
    19    44    43    1
    20    14     6   ar
    21    14    25    1
    22    46    45    1
    23     6     2    1
    24    34    31    1
    25    29    27    1
    26    43    45   ar
    27    43    41   ar
    28    45    36   ar
    29    33    31    1
    30    31    25    1
    31    31    32    1
    32    25    27    1
    33    25    26    1
    34    27    30    1
    35    27    28    1
    36     2    35    2
    37    42    41    1
    38    41    39   ar
    39    53    51    1
    40    36    35    1
    41    36    37   ar
    42    35     3    1
    43    39    37   ar
    44    39    40    1
    45    54    51    1
    46    51    52    1
    47    51     1    1
    48    37    38    1
    49    50    47    1
    50     3     1    1
    51    84    82    1
    52     1    47    1
    53     1     4    1
    54    47    48    1
    55    47    49    1
    56    83    82    1
    57    82    85    1
    58    82    76    1
    59    77    76    1
    60    79    78    1
    61     4    55    1
    62    76    78    1
    63    76    68    1
    64     5    55    2
    65     5    67    1
    66    78    81    1
    67    78    80    1
    68    55    56    1
    69    93    92    1
    70    68    67   ar
    71    68    69   ar
    72    67    75   ar
    73    70    69    1
    74    87    86    1
    75    69    71   ar
    76    56    57   ar
    77    56    65   ar
    78    92    95    1
    79    92    86    1
    80    92    94    1
    81    58    57    1
    82    66    65    1
    83    75    86    1
    84    75    73   ar
    85    86    88    1
    86    57    59   ar
    87    65    63   ar
    88    71    73   ar
    89    71    72    1
    90    73    74    1
    91    59    60    1
    92    59    61   ar
    93    88    90    1
    94    88    89    1
    95    88    91    1
    96    63    64    1
    97    63    61   ar
    98    61    62    1
