@<TRIPOS>MOLECULE
1,5
 61 63 0 0 0
SMALL
GASTEIGER

@<TRIPOS>ATOM
      1 N          16.2739   12.0941   14.5949 N.pl3   1  UNL1        0.0000
      2 N          16.2169   13.7731   16.2533 N.3     1  UNL1        0.0000
      3 N          14.3213   12.6217   15.7634 N.2     1  UNL1        0.3300
      4 N          12.1845   11.7361   15.7480 N.pl3   1  UNL1        0.3300
      5 N          13.9477   10.4514   14.9304 N.pl3   1  UNL1        0.3300
      6 SI         12.7678    9.1910   14.6454 Si      1  UNL1        0.0000
      7 C          17.4256   12.5488   13.9812 C.ar    1  UNL1        0.0000
      8 C          18.5378   11.7111   13.8517 C.ar    1  UNL1        0.0000
      9 H          18.4818   10.7229   14.2771 H       1  UNL1        0.0000
     10 C          19.6729   12.1507   13.2030 C.ar    1  UNL1        0.0000
     11 H          20.5296   11.4952   13.1265 H       1  UNL1        0.0000
     12 C          19.7274   13.4254   12.6581 C.ar    1  UNL1        0.0000
     13 H          20.6206   13.7688   12.1566 H       1  UNL1        0.0000
     14 C          18.6187   14.2524   12.7536 C.ar    1  UNL1        0.0000
     15 H          18.6452   15.2404   12.3145 H       1  UNL1        0.0000
     16 C          17.4791   13.8235   13.4038 C.ar    1  UNL1        0.0000
     17 H          16.6123   14.4658   13.4728 H       1  UNL1        0.0000
     18 C          15.6353   12.7773   15.5066 C.3     1  UNL1        0.0000
     19 C          17.6058   13.7647   16.6512 C.3     1  UNL1        0.0000
     20 H          18.1689   13.0614   16.0409 H       1  UNL1        0.0000
     21 H          17.6710   13.4393   17.7024 H       1  UNL1        0.0000
     22 C          18.1993   15.1671   16.5282 C.3     1  UNL1        0.0000
     23 H          18.1706   15.4720   15.4811 H       1  UNL1        0.0000
     24 H          19.2418   15.1494   16.8497 H       1  UNL1        0.0000
     25 C          17.3916   16.1442   17.3775 C.3     1  UNL1        0.0000
     26 H          17.4965   15.8802   18.4330 H       1  UNL1        0.0000
     27 H          17.7674   17.1608   17.2467 H       1  UNL1        0.0000
     28 C          15.9204   16.0685   16.9806 C.3     1  UNL1        0.0000
     29 H          15.8069   16.4024   15.9476 H       1  UNL1        0.0000
     30 H          15.3189   16.7185   17.6187 H       1  UNL1        0.0000
     31 C          15.4142   14.6306   17.0955 C.3     1  UNL1        0.0000
     32 H          15.4741   14.3000   18.1430 H       1  UNL1        0.0000
     33 H          14.3789   14.5549   16.7673 H       1  UNL1        0.0000
     34 C          13.5792   11.6063   15.4371 C.cat   1  UNL1        0.0000
     35 C          11.6127   12.9286   15.1381 C.3     1  UNL1        0.0000
     36 H          11.8111   12.8748   14.0655 H       1  UNL1        0.0000
     37 H          12.0920   13.8387   15.5331 H       1  UNL1        0.0000
     38 C          10.1103   12.9891   15.3952 C.3     1  UNL1        0.0000
     39 H           9.6309   12.1298   14.9243 H       1  UNL1        0.0000
     40 H           9.7038   13.8961   14.9435 H       1  UNL1        0.0000
     41 C           9.8298   12.9667   16.8941 C.3     1  UNL1        0.0000
     42 H          10.2358   13.8704   17.3551 H       1  UNL1        0.0000
     43 H           8.7537   12.9476   17.0785 H       1  UNL1        0.0000
     44 C          10.4977   11.7410   17.5084 C.3     1  UNL1        0.0000
     45 H          10.0528   10.8370   17.0888 H       1  UNL1        0.0000
     46 H          10.3545   11.7271   18.5905 H       1  UNL1        0.0000
     47 C          11.9890   11.7559   17.1913 C.3     1  UNL1        0.0000
     48 H          12.4536   12.6510   17.6366 H       1  UNL1        0.0000
     49 H          12.4813   10.8753   17.6088 H       1  UNL1        0.0000
     50 C          12.2909    8.3094   16.2770 C.3     1  UNL1        0.0000
     51 H          13.1323    8.2527   16.9608 H       1  UNL1        0.0000
     52 H          11.9588    7.2957   16.0765 H       1  UNL1        0.0000
     53 H          11.4826    8.8215   16.7862 H       1  UNL1        0.0000
     54 C          11.2015    9.6682   13.6629 C.3     1  UNL1        0.0000
     55 H          10.4542   10.1337   14.2934 H       1  UNL1        0.0000
     56 H          10.7585    8.7838   13.2148 H       1  UNL1        0.0000
     57 H          11.4417   10.3586   12.8604 H       1  UNL1        0.0000
     58 C          13.7275    7.9625   13.5398 C.3     1  UNL1        0.0000
     59 H          13.6952    8.2813   12.5028 H       1  UNL1        0.0000
     60 H          13.2982    6.9676   13.5883 H       1  UNL1        0.0000
     61 H          14.7746    7.8879   13.8271 H       1  UNL1        0.0000
@<TRIPOS>BOND
     1    13    12    1
     2    15    14    1
     3    59    58    1
     4    12    14   ar
     5    12    10   ar
     6    14    16   ar
     7    57    54    1
     8    11    10    1
     9    10     8   ar
    10    56    54    1
    11    16    17    1
    12    16     7   ar
    13    58    60    1
    14    58    61    1
    15    58     6    1
    16    54    55    1
    17    54     6    1
    18     8     7   ar
    19     8     9    1
    20     7     1    1
    21    36    35    1
    22     1    18    1
    23     6     5    1
    24     6    50    1
    25    39    38    1
    26     5    34    1
    27    40    38    1
    28    35    38    1
    29    35    37    1
    30    35     4    1
    31    38    41    1
    32    34     4    1
    33    34     3    2
    34    23    22    1
    35    18     3    1
    36    18     2    1
    37     4    47    1
    38    29    28    1
    39    20    19    1
    40    52    50    1
    41     2    19    1
    42     2    31    1
    43    50    53    1
    44    50    51    1
    45    22    19    1
    46    22    24    1
    47    22    25    1
    48    19    21    1
    49    33    31    1
    50    41    43    1
    51    41    42    1
    52    41    44    1
    53    28    31    1
    54    28    25    1
    55    28    30    1
    56    45    44    1
    57    31    32    1
    58    47    44    1
    59    47    49    1
    60    47    48    1
    61    27    25    1
    62    25    26    1
    63    44    46    1
