@<TRIPOS>MOLECULE
1,5
 61 63 0 0 0
SMALL
GASTEIGER

@<TRIPOS>ATOM
      1 N          16.1506   10.2144   12.1456 N.pl3   1  UNL1        0.3300
      2 N          17.6103   10.1185   10.2963 N.pl3   1  UNL1        0.3300
      3 N          17.9851    8.7873   12.1031 N.2     1  UNL1        0.3300
      4 N          18.5298    7.1384   13.6123 N.3     1  UNL1        0.0000
      5 N          17.0567    8.8360   14.2606 N.3     1  UNL1        0.0000
      6 SI         17.2519    8.4247   15.9439 Si      1  UNL1        0.0000
      7 C          14.9988   10.6135   11.5080 C.ar    1  UNL1        0.0000
      8 C          14.4539    9.8636   10.4521 C.ar    1  UNL1        0.0000
      9 H          15.0020    9.0058   10.0887 H       1  UNL1        0.0000
     10 C          13.2425   10.2127    9.8934 C.ar    1  UNL1        0.0000
     11 H          12.8367    9.6201    9.0858 H       1  UNL1        0.0000
     12 C          12.5411   11.3128   10.3631 C.ar    1  UNL1        0.0000
     13 H          11.5928   11.5823    9.9226 H       1  UNL1        0.0000
     14 C          13.0730   12.0681   11.3973 C.ar    1  UNL1        0.0000
     15 H          12.5402   12.9400   11.7514 H       1  UNL1        0.0000
     16 C          14.2833   11.7297   11.9690 C.ar    1  UNL1        0.0000
     17 H          14.7139   12.3293   12.7561 H       1  UNL1        0.0000
     18 C          17.2279    9.7386   11.5506 C.cat   1  UNL1        0.0000
     19 C          17.1886   11.3349    9.6435 C.3     1  UNL1        0.0000
     20 H          16.3580   11.7829   10.1847 H       1  UNL1        0.0000
     21 H          16.8458   11.0822    8.6305 H       1  UNL1        0.0000
     22 C          18.3366   12.3456    9.5633 C.3     1  UNL1        0.0000
     23 H          17.9976   13.2237    9.0107 H       1  UNL1        0.0000
     24 H          18.5967   12.6567   10.5756 H       1  UNL1        0.0000
     25 C          19.5606   11.7303    8.8938 C.3     1  UNL1        0.0000
     26 H          20.3874   12.4431    8.8987 H       1  UNL1        0.0000
     27 H          19.3301   11.4892    7.8525 H       1  UNL1        0.0000
     28 C          19.9498   10.4568    9.6371 C.3     1  UNL1        0.0000
     29 H          20.7983    9.9705    9.1528 H       1  UNL1        0.0000
     30 H          20.2263   10.7017   10.6631 H       1  UNL1        0.0000
     31 C          18.7564    9.5045    9.6638 C.3     1  UNL1        0.0000
     32 H          18.4747    9.2449    8.6348 H       1  UNL1        0.0000
     33 H          18.9950    8.5991   10.2185 H       1  UNL1        0.0000
     34 C          17.7912    8.3049   13.3123 C.3     1  UNL1        0.0000
     35 C          19.7448    6.9594   12.8377 C.3     1  UNL1        0.0000
     36 H          20.2836    7.9074   12.8325 H       1  UNL1        0.0000
     37 H          19.5202    6.6882   11.7943 H       1  UNL1        0.0000
     38 C          20.5870    5.8606   13.4804 C.3     1  UNL1        0.0000
     39 H          21.5118    5.7324   12.9152 H       1  UNL1        0.0000
     40 H          20.8444    6.1595   14.4972 H       1  UNL1        0.0000
     41 C          19.8003    4.5540   13.5164 C.3     1  UNL1        0.0000
     42 H          20.3754    3.7777   14.0251 H       1  UNL1        0.0000
     43 H          19.6105    4.2171   12.4942 H       1  UNL1        0.0000
     44 C          18.4703    4.7815   14.2290 C.3     1  UNL1        0.0000
     45 H          18.6560    5.0317   15.2745 H       1  UNL1        0.0000
     46 H          17.8584    3.8780   14.1939 H       1  UNL1        0.0000
     47 C          17.7198    5.9327   13.5669 C.3     1  UNL1        0.0000
     48 H          17.4952    5.6623   12.5197 H       1  UNL1        0.0000
     49 H          16.7768    6.1255   14.0762 H       1  UNL1        0.0000
     50 C          19.0794    8.1161   16.4260 C.3     1  UNL1        0.0000
     51 H          19.3747    7.0878   16.2580 H       1  UNL1        0.0000
     52 H          19.2378    8.3398   17.4768 H       1  UNL1        0.0000
     53 H          19.7482    8.7453   15.8479 H       1  UNL1        0.0000
     54 C          16.1621    6.9584   16.5313 C.3     1  UNL1        0.0000
     55 H          15.1920    6.9637   16.0437 H       1  UNL1        0.0000
     56 H          15.9883    7.0396   17.5999 H       1  UNL1        0.0000
     57 H          16.6217    5.9920   16.3553 H       1  UNL1        0.0000
     58 C          16.6690    9.9295   16.9535 C.3     1  UNL1        0.0000
     59 H          17.3041   10.7902   16.7849 H       1  UNL1        0.0000
     60 H          16.6860    9.7065   18.0150 H       1  UNL1        0.0000
     61 H          15.6565   10.2118   16.6859 H       1  UNL1        0.0000
@<TRIPOS>BOND
     1    27    25    1
     2    21    19    1
     3    32    31    1
     4    25    26    1
     5    25    22    1
     6    25    28    1
     7    23    22    1
     8    11    10    1
     9    29    28    1
    10    22    19    1
    11    22    24    1
    12    28    31    1
    13    28    30    1
    14    19    20    1
    15    19     2    1
    16    31    33    1
    17    31     2    1
    18    10    12   ar
    19    10     8   ar
    20    13    12    1
    21     9     8    1
    22     2    18    1
    23    12    14   ar
    24     8     7   ar
    25    14    15    1
    26    14    16   ar
    27     7    16   ar
    28     7     1    1
    29    18     3    2
    30    18     1    1
    31    37    35    1
    32    16    17    1
    33     3    34    1
    34    43    41    1
    35    48    47    1
    36    36    35    1
    37    35    38    1
    38    35     4    1
    39    39    38    1
    40    34     4    1
    41    34     5    1
    42    38    41    1
    43    38    40    1
    44    41    42    1
    45    41    44    1
    46    47     4    1
    47    47    49    1
    48    47    44    1
    49    46    44    1
    50    44    45    1
    51     5     6    1
    52    53    50    1
    53     6    50    1
    54     6    54    1
    55     6    58    1
    56    55    54    1
    57    51    50    1
    58    57    54    1
    59    50    52    1
    60    54    56    1
    61    61    58    1
    62    59    58    1
    63    58    60    1
