@<TRIPOS>MOLECULE
1,5
 63 64 0 0 0
SMALL
GASTEIGER

@<TRIPOS>ATOM
      1 N           9.1017    7.0689    4.4260 N.3     1  UNL1        0.0000
      2 N          11.3729    7.1231    3.8524 N.3     1  UNL1        0.0000
      3 N           9.8954    6.3112    2.3601 N.2     1  UNL1        0.3300
      4 N           9.0082    5.0393    0.6630 N.pl3   1  UNL1        0.3300
      5 N           7.6442    5.6068    2.4707 N.pl3   1  UNL1        0.3300
      6 SI          8.8705    8.4434    5.4134 Si      1  UNL1        0.0000
      7 SI          6.5849    4.3732    1.8515 Si      1  UNL1        0.0000
      8 C          10.0681    6.8239    3.5757 C.3     1  UNL1        0.0000
      9 C          11.9218    7.0859    5.1830 C.3     1  UNL1        0.0000
     10 H          12.5195    6.1665    5.2944 H       1  UNL1        0.0000
     11 H          11.1106    7.0564    5.9033 H       1  UNL1        0.0000
     12 C          12.8342    8.2899    5.4082 C.3     1  UNL1        0.0000
     13 H          12.2476    9.2044    5.3194 H       1  UNL1        0.0000
     14 H          13.2609    8.2468    6.4117 H       1  UNL1        0.0000
     15 C          13.9421    8.2881    4.3575 C.3     1  UNL1        0.0000
     16 H          14.5755    7.4092    4.4997 H       1  UNL1        0.0000
     17 H          14.5695    9.1751    4.4657 H       1  UNL1        0.0000
     18 C          13.3244    8.2462    2.9623 C.3     1  UNL1        0.0000
     19 H          14.1057    8.1863    2.2027 H       1  UNL1        0.0000
     20 H          12.7530    9.1608    2.7930 H       1  UNL1        0.0000
     21 C          12.3890    7.0436    2.8296 C.3     1  UNL1        0.0000
     22 H          11.8899    7.0386    1.8624 H       1  UNL1        0.0000
     23 H          12.9646    6.1127    2.9333 H       1  UNL1        0.0000
     24 C           8.8120    5.7088    1.9192 C.cat   1  UNL1        0.0000
     25 C          10.2539    4.2806    0.6376 C.3     1  UNL1        0.0000
     26 H          10.2514    3.6084    1.4968 H       1  UNL1        0.0000
     27 H          11.1232    4.9477    0.7309 H       1  UNL1        0.0000
     28 C          10.3609    3.4910   -0.6629 C.3     1  UNL1        0.0000
     29 H          11.2794    2.9013   -0.6543 H       1  UNL1        0.0000
     30 H           9.5142    2.8076   -0.7438 H       1  UNL1        0.0000
     31 C          10.3488    4.4495   -1.8478 C.3     1  UNL1        0.0000
     32 H          11.2280    5.0968   -1.8021 H       1  UNL1        0.0000
     33 H          10.3846    3.8968   -2.7890 H       1  UNL1        0.0000
     34 C           9.0839    5.2971   -1.7785 C.3     1  UNL1        0.0000
     35 H           8.2134    4.6532   -1.9044 H       1  UNL1        0.0000
     36 H           9.0772    6.0438   -2.5752 H       1  UNL1        0.0000
     37 C           8.9901    6.0023   -0.4283 C.3     1  UNL1        0.0000
     38 H           9.8283    6.7137   -0.3288 H       1  UNL1        0.0000
     39 H           8.0547    6.5610   -0.3671 H       1  UNL1        0.0000
     40 C           9.5334   10.0121    4.5171 C.3     1  UNL1        0.0000
     41 H          10.1822    9.7249    3.6962 H       1  UNL1        0.0000
     42 H          10.1015   10.6563    5.1806 H       1  UNL1        0.0000
     43 H           8.7280   10.6098    4.1021 H       1  UNL1        0.0000
     44 C           9.5743    8.5231    7.1996 C.3     1  UNL1        0.0000
     45 H           9.5902    7.5531    7.6841 H       1  UNL1        0.0000
     46 H           8.9441    9.1721    7.8011 H       1  UNL1        0.0000
     47 H          10.5807    8.9262    7.2391 H       1  UNL1        0.0000
     48 C           6.9904    8.5426    5.5666 C.3     1  UNL1        0.0000
     49 H           6.5207    7.9805    4.7595 H       1  UNL1        0.0000
     50 H           6.6155    9.5583    5.5186 H       1  UNL1        0.0000
     51 H           6.6426    8.1044    6.4926 H       1  UNL1        0.0000
     52 C           7.4372    2.6535    1.8462 C.3     1  UNL1        0.0000
     53 H           8.1298    2.5421    1.0228 H       1  UNL1        0.0000
     54 H           6.6957    1.8650    1.7577 H       1  UNL1        0.0000
     55 H           7.9843    2.4877    2.7672 H       1  UNL1        0.0000
     56 C           5.9086    4.7031    0.0853 C.3     1  UNL1        0.0000
     57 H           5.9450    5.7531   -0.1762 H       1  UNL1        0.0000
     58 H           4.8753    4.3801    0.0118 H       1  UNL1        0.0000
     59 H           6.4743    4.1584   -0.6604 H       1  UNL1        0.0000
     60 C           5.0304    4.0823    2.9053 C.3     1  UNL1        0.0000
     61 H           5.2326    4.2653    3.9478 H       1  UNL1        0.0000
     62 H           4.6911    3.0568    2.7971 H       1  UNL1        0.0000
     63 H           4.2154    4.7278    2.6075 H       1  UNL1        0.0000
@<TRIPOS>BOND
     1    33    31    1
     2    36    34    1
     3    35    34    1
     4    31    32    1
     5    31    34    1
     6    31    28    1
     7    34    37    1
     8    30    28    1
     9    28    29    1
    10    28    25    1
    11    59    56    1
    12    37    39    1
    13    37    38    1
    14    37     4    1
    15    57    56    1
    16    58    56    1
    17    56     7    1
    18    25     4    1
    19    25    27    1
    20    25    26    1
    21     4    24    1
    22    53    52    1
    23    54    52    1
    24    52     7    1
    25    52    55    1
    26     7     5    1
    27     7    60    1
    28    22    21    1
    29    24     3    2
    30    24     5    1
    31    19    18    1
    32     3     8    1
    33    63    60    1
    34    20    18    1
    35    62    60    1
    36    21    23    1
    37    21    18    1
    38    21     2    1
    39    60    61    1
    40    18    15    1
    41     8     2    1
    42     8     1    1
    43    41    40    1
    44     2     9    1
    45    43    40    1
    46    15    17    1
    47    15    16    1
    48    15    12    1
    49     1     6    1
    50    40    42    1
    51    40     6    1
    52    49    48    1
    53     9    10    1
    54     9    12    1
    55     9    11    1
    56    13    12    1
    57    12    14    1
    58     6    48    1
    59     6    44    1
    60    50    48    1
    61    48    51    1
    62    44    47    1
    63    44    45    1
    64    44    46    1
