@<TRIPOS>MOLECULE
1,5
 63 64 0 0 0
SMALL
GASTEIGER

@<TRIPOS>ATOM
      1 N           5.4281    7.0686    3.1755 N.3     1  UNL1        0.0000
      2 N           3.1569    7.1223    3.7490 N.3     1  UNL1        0.0000
      3 N           4.6345    6.3110    5.2415 N.2     1  UNL1        0.3300
      4 N           5.5221    5.0391    6.9385 N.pl3   1  UNL1        0.3300
      5 N           6.8858    5.6068    5.1307 N.pl3   1  UNL1        0.3300
      6 SI          5.6591    8.4429    2.1879 Si      1  UNL1        0.0000
      7 SI          7.9451    4.3732    5.7501 Si      1  UNL1        0.0000
      8 C           4.4617    6.8235    4.0258 C.3     1  UNL1        0.0000
      9 C           2.6079    7.0850    2.4185 C.3     1  UNL1        0.0000
     10 H           2.0099    6.1656    2.3075 H       1  UNL1        0.0000
     11 H           3.4190    7.0550    1.6982 H       1  UNL1        0.0000
     12 C           1.6958    8.2891    2.1930 C.3     1  UNL1        0.0000
     13 H           2.2827    9.2034    2.2812 H       1  UNL1        0.0000
     14 H           1.2688    8.2456    1.1897 H       1  UNL1        0.0000
     15 C           0.5881    8.2883    3.2440 C.3     1  UNL1        0.0000
     16 H          -0.0458    7.4096    3.1023 H       1  UNL1        0.0000
     17 H          -0.0389    9.1755    3.1355 H       1  UNL1        0.0000
     18 C           1.2061    8.2466    4.6391 C.3     1  UNL1        0.0000
     19 H           0.4249    8.1875    5.3988 H       1  UNL1        0.0000
     20 H           1.7780    9.1609    4.8078 H       1  UNL1        0.0000
     21 C           2.1409    7.0436    4.7720 C.3     1  UNL1        0.0000
     22 H           2.6401    7.0385    5.7391 H       1  UNL1        0.0000
     23 H           1.5648    6.1130    4.6686 H       1  UNL1        0.0000
     24 C           5.7180    5.7087    5.6823 C.cat   1  UNL1        0.0000
     25 C           4.2763    4.2806    6.9643 C.3     1  UNL1        0.0000
     26 H           4.2786    3.6083    6.1050 H       1  UNL1        0.0000
     27 H           3.4071    4.9476    6.8711 H       1  UNL1        0.0000
     28 C           4.1697    3.4910    8.2648 C.3     1  UNL1        0.0000
     29 H           3.2511    2.9013    8.2564 H       1  UNL1        0.0000
     30 H           5.0164    2.8076    8.3456 H       1  UNL1        0.0000
     31 C           4.1821    4.4496    9.4497 C.3     1  UNL1        0.0000
     32 H           3.3029    5.0970    9.4041 H       1  UNL1        0.0000
     33 H           4.1464    3.8970   10.3909 H       1  UNL1        0.0000
     34 C           5.4470    5.2970    9.3801 C.3     1  UNL1        0.0000
     35 H           6.3175    4.6531    9.5059 H       1  UNL1        0.0000
     36 H           5.4539    6.0438   10.1767 H       1  UNL1        0.0000
     37 C           5.5407    6.0022    8.0298 C.3     1  UNL1        0.0000
     38 H           4.7025    6.7137    7.9304 H       1  UNL1        0.0000
     39 H           6.4760    6.5608    7.9682 H       1  UNL1        0.0000
     40 C           4.9962   10.0118    3.0839 C.3     1  UNL1        0.0000
     41 H           4.3475    9.7249    3.9051 H       1  UNL1        0.0000
     42 H           4.4280   10.6558    2.4204 H       1  UNL1        0.0000
     43 H           5.8017   10.6097    3.4986 H       1  UNL1        0.0000
     44 C           4.9551    8.5225    0.4017 C.3     1  UNL1        0.0000
     45 H           4.9403    7.5526   -0.0832 H       1  UNL1        0.0000
     46 H           5.5845    9.1724   -0.1995 H       1  UNL1        0.0000
     47 H           3.9482    8.9243    0.3623 H       1  UNL1        0.0000
     48 C           7.5391    8.5423    2.0346 C.3     1  UNL1        0.0000
     49 H           8.0089    7.9809    2.8422 H       1  UNL1        0.0000
     50 H           7.9139    9.5580    2.0817 H       1  UNL1        0.0000
     51 H           7.8870    8.1034    1.1089 H       1  UNL1        0.0000
     52 C           7.0929    2.6535    5.7554 C.3     1  UNL1        0.0000
     53 H           6.4004    2.5420    6.5789 H       1  UNL1        0.0000
     54 H           7.8344    1.8650    5.8438 H       1  UNL1        0.0000
     55 H           6.5457    2.4877    4.8344 H       1  UNL1        0.0000
     56 C           8.6218    4.7032    7.5161 C.3     1  UNL1        0.0000
     57 H           8.5859    5.7532    7.7774 H       1  UNL1        0.0000
     58 H           9.6550    4.3798    7.5894 H       1  UNL1        0.0000
     59 H           8.0561    4.1587    8.2620 H       1  UNL1        0.0000
     60 C           9.4996    4.0824    4.6960 C.3     1  UNL1        0.0000
     61 H           9.2974    4.2661    3.6537 H       1  UNL1        0.0000
     62 H           9.8385    3.0568    4.8036 H       1  UNL1        0.0000
     63 H          10.3147    4.7275    4.9943 H       1  UNL1        0.0000
@<TRIPOS>BOND
     1    46    44    1
     2    45    44    1
     3    47    44    1
     4    44     6    1
     5    51    48    1
     6    14    12    1
     7    11     9    1
     8    48    50    1
     9    48     6    1
    10    48    49    1
    11     6    40    1
    12     6     1    1
    13    12    13    1
    14    12     9    1
    15    12    15    1
    16    10     9    1
    17     9     2    1
    18    42    40    1
    19    40    43    1
    20    40    41    1
    21    16    15    1
    22    17    15    1
    23     1     8    1
    24    15    18    1
    25    61    60    1
    26     2     8    1
    27     2    21    1
    28     8     3    1
    29    18    21    1
    30    18    20    1
    31    18    19    1
    32    23    21    1
    33    60    62    1
    34    60    63    1
    35    60     7    1
    36    21    22    1
    37    55    52    1
    38     5    24    1
    39     5     7    1
    40     3    24    2
    41    24     4    1
    42     7    52    1
    43     7    56    1
    44    52    54    1
    45    52    53    1
    46    26    25    1
    47    27    25    1
    48     4    25    1
    49     4    37    1
    50    25    28    1
    51    56    58    1
    52    56    57    1
    53    56    59    1
    54    38    37    1
    55    39    37    1
    56    37    34    1
    57    29    28    1
    58    28    30    1
    59    28    31    1
    60    34    31    1
    61    34    35    1
    62    34    36    1
    63    32    31    1
    64    31    33    1
