@<TRIPOS>MOLECULE
3,4
 29 28 0 0 0
SMALL
GASTEIGER

@<TRIPOS>ATOM
      1 SI         -1.1059    0.6233    9.5424 Si      1  UNL1        0.0000
      2 SI          0.5616    3.1628   12.1715 Si      1  UNL1        0.0000
      3 N           0.2299    1.0550   10.5501 N.3     1  UNL1        0.0000
      4 N           0.0609    1.4834   11.8948 N.3     1  UNL1        0.0000
      5 C          -2.6586    0.2350   10.6025 C.3     1  UNL1        0.0000
      6 H          -3.0264    1.1207   11.1158 H       1  UNL1        0.0000
      7 H          -2.4367   -0.5246   11.3492 H       1  UNL1        0.0000
      8 H          -3.4699   -0.1396    9.9874 H       1  UNL1        0.0000
      9 C          -1.5758    2.0191    8.3158 C.3     1  UNL1        0.0000
     10 H          -0.7052    2.4019    7.7939 H       1  UNL1        0.0000
     11 H          -2.0668    2.8533    8.8055 H       1  UNL1        0.0000
     12 H          -2.2612    1.6344    7.5686 H       1  UNL1        0.0000
     13 C          -0.4860   -0.9047    8.5811 C.3     1  UNL1        0.0000
     14 H           0.6023   -0.9136    8.6119 H       1  UNL1        0.0000
     15 H          -0.8080   -0.9012    7.5457 H       1  UNL1        0.0000
     16 H          -0.8434   -1.8219    9.0396 H       1  UNL1        0.0000
     17 C          -0.4688    4.3434   11.0802 C.3     1  UNL1        0.0000
     18 H          -1.5294    4.2696   11.3006 H       1  UNL1        0.0000
     19 H          -0.3314    4.1180   10.0278 H       1  UNL1        0.0000
     20 H          -0.1731    5.3738   11.2437 H       1  UNL1        0.0000
     21 C           2.3933    3.1682   11.6201 C.3     1  UNL1        0.0000
     22 H           2.5878    2.2577   11.0401 H       1  UNL1        0.0000
     23 H           3.0606    3.1678   12.4784 H       1  UNL1        0.0000
     24 H           2.6415    4.0270   11.0033 H       1  UNL1        0.0000
     25 C           0.2927    3.4923   14.0294 C.3     1  UNL1        0.0000
     26 H           0.8306    2.7646   14.6300 H       1  UNL1        0.0000
     27 H          -0.7569    3.4451   14.3050 H       1  UNL1        0.0000
     28 H           0.6559    4.4779   14.2973 H       1  UNL1        0.0000
     29 H          -0.8078    1.1457   12.3293 H       1  UNL1        0.0000
@<TRIPOS>BOND
     1    15    13    1
     2    12     9    1
     3    10     9    1
     4     9    11    1
     5     9     1    1
     6    13    14    1
     7    13    16    1
     8    13     1    1
     9     1     3    1
    10     1     5    1
    11     8     5    1
    12    19    17    1
    13     3     4    1
    14     5     6    1
    15     5     7    1
    16    24    21    1
    17    22    21    1
    18    17    20    1
    19    17    18    1
    20    17     2    1
    21    21     2    1
    22    21    23    1
    23     4     2    1
    24     4    29    1
    25     2    25    1
    26    25    28    1
    27    25    27    1
    28    25    26    1
