@<TRIPOS>MOLECULE
3,5
 29 28 0 0 0
SMALL
GASTEIGER

@<TRIPOS>ATOM
      1 SI          3.2844   -2.8688   11.0320 Si      1  UNL1        0.0000
      2 SI          3.6206    0.3250    8.8682 Si      1  UNL1        0.0000
      3 N           3.1399   -1.1040   11.1897 N.3     1  UNL1        0.0000
      4 H           3.9595   -0.6726   11.6409 H       1  UNL1        0.0000
      5 N           2.6314   -0.2842   10.1409 N.3     1  UNL1        0.0000
      6 C           2.0284   -3.4509    9.7265 C.3     1  UNL1        0.0000
      7 H           1.0153   -3.2360   10.0566 H       1  UNL1        0.0000
      8 H           2.1063   -4.5199    9.5543 H       1  UNL1        0.0000
      9 H           2.1835   -2.9449    8.7782 H       1  UNL1        0.0000
     10 C           2.9778   -3.5410   12.7910 C.3     1  UNL1        0.0000
     11 H           1.9313   -3.4458   13.0674 H       1  UNL1        0.0000
     12 H           3.5595   -2.9930   13.5289 H       1  UNL1        0.0000
     13 H           3.2495   -4.5885   12.8660 H       1  UNL1        0.0000
     14 C           5.0819   -3.2867   10.5155 C.3     1  UNL1        0.0000
     15 H           5.3771   -2.7911    9.5962 H       1  UNL1        0.0000
     16 H           5.1903   -4.3543   10.3613 H       1  UNL1        0.0000
     17 H           5.7906   -2.9988   11.2865 H       1  UNL1        0.0000
     18 C           3.9213   -0.9211    7.4407 C.3     1  UNL1        0.0000
     19 H           4.3679   -1.8509    7.7791 H       1  UNL1        0.0000
     20 H           4.5876   -0.4904    6.6996 H       1  UNL1        0.0000
     21 H           2.9911   -1.1675    6.9370 H       1  UNL1        0.0000
     22 C           5.3279    0.8207    9.6026 C.3     1  UNL1        0.0000
     23 H           5.2108    1.3826   10.5281 H       1  UNL1        0.0000
     24 H           5.8952    1.4387    8.9146 H       1  UNL1        0.0000
     25 H           5.9332   -0.0549    9.8221 H       1  UNL1        0.0000
     26 C           2.6678    1.8327    8.1863 C.3     1  UNL1        0.0000
     27 H           3.1937    2.7631    8.3727 H       1  UNL1        0.0000
     28 H           1.6904    1.8879    8.6597 H       1  UNL1        0.0000
     29 H           2.5232    1.7505    7.1151 H       1  UNL1        0.0000
@<TRIPOS>BOND
     1    20    18    1
     2    21    18    1
     3    29    26    1
     4    18    19    1
     5    18     2    1
     6    26    27    1
     7    26    28    1
     8    26     2    1
     9     9     6    1
    10     2    22    1
    11     2     5    1
    12    24    22    1
    13     8     6    1
    14    15    14    1
    15    22    25    1
    16    22    23    1
    17     6     7    1
    18     6     1    1
    19     5     3    1
    20    16    14    1
    21    14     1    1
    22    14    17    1
    23     1     3    1
    24     1    10    1
    25     3     4    1
    26    10    13    1
    27    10    11    1
    28    10    12    1
