@<TRIPOS>MOLECULE
4,5
 44 44 0 0 0
SMALL
GASTEIGER

@<TRIPOS>ATOM
      1 SI         -5.2753    4.5417    1.4913 Si      1  UNL1        0.0000
      2 SI         -0.8564    1.4216    2.5368 Si      1  UNL1        0.0000
      3 O          -2.6212    1.3062   -3.5600 O.3     1  UNL1        0.0000
      4 N          -4.1109    3.5428    2.3147 N.3     1  UNL1        0.0000
      5 N          -2.2875    2.3754    2.7399 N.3     1  UNL1        0.0000
      6 C          -4.5701    6.3183    1.4337 C.3     1  UNL1        0.0000
      7 H          -4.4013    6.6906    2.4431 H       1  UNL1        0.0000
      8 H          -5.2498    7.0031    0.9362 H       1  UNL1        0.0000
      9 H          -3.6158    6.3540    0.9115 H       1  UNL1        0.0000
     10 C          -6.8693    4.4440    2.5434 C.3     1  UNL1        0.0000
     11 H          -7.2736    3.4367    2.5945 H       1  UNL1        0.0000
     12 H          -7.6373    5.0858    2.1247 H       1  UNL1        0.0000
     13 H          -6.6755    4.7781    3.5583 H       1  UNL1        0.0000
     14 C          -5.7025    3.9895   -0.2909 C.3     1  UNL1        0.0000
     15 H          -6.0565    2.9648   -0.3273 H       1  UNL1        0.0000
     16 H          -4.8551    4.0695   -0.9634 H       1  UNL1        0.0000
     17 H          -6.4928    4.6228   -0.6791 H       1  UNL1        0.0000
     18 C          -3.1724    2.7515    1.8431 C.3     1  UNL1        0.0000
     19 C          -3.0760    2.3462    0.4248 C.ar    1  UNL1        0.0000
     20 C          -3.8331    1.3036   -0.0844 C.ar    1  UNL1        0.0000
     21 H          -4.5222    0.7791    0.5607 H       1  UNL1        0.0000
     22 C          -3.7099    0.9228   -1.4104 C.ar    1  UNL1        0.0000
     23 H          -4.3092    0.1049   -1.7776 H       1  UNL1        0.0000
     24 C          -2.8238    1.5943   -2.2459 C.ar    1  UNL1        0.0000
     25 C          -2.0658    2.6495   -1.7315 C.ar    1  UNL1        0.0000
     26 H          -1.3877    3.1619   -2.3953 H       1  UNL1        0.0000
     27 C          -2.1881    3.0195   -0.4102 C.ar    1  UNL1        0.0000
     28 H          -1.6072    3.8384   -0.0110 H       1  UNL1        0.0000
     29 C          -3.3629    0.2629   -4.1444 C.3     1  UNL1        0.0000
     30 H          -3.0432    0.2218   -5.1843 H       1  UNL1        0.0000
     31 H          -4.4383    0.4629   -4.1047 H       1  UNL1        0.0000
     32 H          -3.1527   -0.6982   -3.6641 H       1  UNL1        0.0000
     33 C          -1.1007   -0.0686    1.3584 C.3     1  UNL1        0.0000
     34 H          -1.1194    0.2384    0.3178 H       1  UNL1        0.0000
     35 H          -2.0262   -0.5987    1.5616 H       1  UNL1        0.0000
     36 H          -0.2847   -0.7734    1.4786 H       1  UNL1        0.0000
     37 C           0.5752    2.5257    1.9062 C.3     1  UNL1        0.0000
     38 H           0.3932    3.5662    2.1673 H       1  UNL1        0.0000
     39 H           0.6757    2.4684    0.8258 H       1  UNL1        0.0000
     40 H           1.5275    2.2357    2.3388 H       1  UNL1        0.0000
     41 C          -0.5151    0.7505    4.2933 C.3     1  UNL1        0.0000
     42 H          -0.4156    1.5748    4.9948 H       1  UNL1        0.0000
     43 H           0.3961    0.1621    4.3269 H       1  UNL1        0.0000
     44 H          -1.3334    0.1214    4.6359 H       1  UNL1        0.0000
@<TRIPOS>BOND
     1    30    29    1
     2    29    31    1
     3    29    32    1
     4    29     3    1
     5     3    24    1
     6    26    25    1
     7    24    25   ar
     8    24    22   ar
     9    23    22    1
    10    25    27   ar
    11    22    20   ar
    12    16    14    1
    13    17    14    1
    14    27    28    1
    15    27    19   ar
    16    15    14    1
    17    14     1    1
    18    20    19   ar
    19    20    21    1
    20    34    33    1
    21    19    18    1
    22    39    37    1
    23     9     6    1
    24     8     6    1
    25    33    36    1
    26    33    35    1
    27    33     2    1
    28     6     1    1
    29     6     7    1
    30     1     4    1
    31     1    10    1
    32    18     4    1
    33    18     5    1
    34    37    38    1
    35    37    40    1
    36    37     2    1
    37    12    10    1
    38     2     5    1
    39     2    41    1
    40    10    11    1
    41    10    13    1
    42    41    43    1
    43    41    44    1
    44    41    42    1
