@<TRIPOS>MOLECULE
3,4
 52 52 0 0 0
SMALL
GASTEIGER

@<TRIPOS>ATOM
      1 SI         11.7434    3.3903   19.1497 Si      1  UNL1        0.0000
      2 SI          7.8561    0.2760   21.5043 Si      1  UNL1        0.0000
      3 N          10.3135    2.4450   19.3969 N.3     1  UNL1        0.0000
      4 N           8.7099    1.2740   20.3608 N.3     1  UNL1        0.0000
      5 C           9.7564    2.0541   20.5220 C.3     1  UNL1        0.0000
      6 C          10.3092    2.4251   21.8410 C.ar    1  UNL1        0.0000
      7 C           9.7898    3.4827   22.5749 C.ar    1  UNL1        0.0000
      8 H           8.9518    4.0421   22.1857 H       1  UNL1        0.0000
      9 C          10.3506    3.8157   23.7940 C.ar    1  UNL1        0.0000
     10 H           9.9450    4.6408   24.3620 H       1  UNL1        0.0000
     11 C          11.4275    3.1006   24.3035 C.ar    1  UNL1        0.0000
     12 C          11.9368    2.0412   23.5616 C.ar    1  UNL1        0.0000
     13 H          12.7715    1.4741   23.9482 H       1  UNL1        0.0000
     14 C          11.3867    1.7025   22.3394 C.ar    1  UNL1        0.0000
     15 H          11.7767    0.8746   21.7639 H       1  UNL1        0.0000
     16 C          12.0624    3.5003   25.6029 C.3     1  UNL1        0.0000
     17 H          12.4993    2.6261   26.0896 H       1  UNL1        0.0000
     18 H          11.3096    3.9228   26.2715 H       1  UNL1        0.0000
     19 C          13.2941    2.2772   19.2992 C.3     1  UNL1        0.0000
     20 H          13.0427    1.2446   19.0662 H       1  UNL1        0.0000
     21 H          13.7029    2.2984   20.3058 H       1  UNL1        0.0000
     22 H          14.0810    2.5902   18.6203 H       1  UNL1        0.0000
     23 C          11.5231    4.0698   17.3776 C.3     1  UNL1        0.0000
     24 H          11.3861    3.2500   16.6769 H       1  UNL1        0.0000
     25 H          12.3846    4.6487   17.0607 H       1  UNL1        0.0000
     26 H          10.6468    4.7104   17.3120 H       1  UNL1        0.0000
     27 C          11.8926    4.8719   20.3547 C.3     1  UNL1        0.0000
     28 H          10.9585    5.4182   20.4439 H       1  UNL1        0.0000
     29 H          12.6457    5.5655   19.9956 H       1  UNL1        0.0000
     30 H          12.1849    4.5565   21.3510 H       1  UNL1        0.0000
     31 C           6.0178    0.3553   20.9842 C.3     1  UNL1        0.0000
     32 H           5.6184    1.3653   21.0198 H       1  UNL1        0.0000
     33 H           5.4138   -0.2612   21.6418 H       1  UNL1        0.0000
     34 H           5.8920   -0.0180   19.9724 H       1  UNL1        0.0000
     35 C           8.5570   -1.4974   21.3600 C.3     1  UNL1        0.0000
     36 H           9.6228   -1.5271   21.5785 H       1  UNL1        0.0000
     37 H           8.4236   -1.8749   20.3471 H       1  UNL1        0.0000
     38 H           8.0569   -2.1818   22.0382 H       1  UNL1        0.0000
     39 C           7.9825    0.8482   23.3265 C.3     1  UNL1        0.0000
     40 H           8.9897    0.7625   23.7200 H       1  UNL1        0.0000
     41 H           7.3358    0.2292   23.9389 H       1  UNL1        0.0000
     42 H           7.6663    1.8781   23.4543 H       1  UNL1        0.0000
     43 C          13.1615    4.5427   25.3628 C.3     1  UNL1        0.0000
     44 H          13.9135    4.1212   24.6917 H       1  UNL1        0.0000
     45 H          12.7268    5.4129   24.8655 H       1  UNL1        0.0000
     46 C          13.8277    4.9796   26.6645 C.3     1  UNL1        0.0000
     47 H          13.0731    5.4013   27.3326 H       1  UNL1        0.0000
     48 H          14.2575    4.1066   27.1610 H       1  UNL1        0.0000
     49 C          14.9212    6.0122   26.4203 C.3     1  UNL1        0.0000
     50 H          15.3814    6.3118   27.3589 H       1  UNL1        0.0000
     51 H          14.5096    6.8980   25.9414 H       1  UNL1        0.0000
     52 H          15.6946    5.6031   25.7738 H       1  UNL1        0.0000
@<TRIPOS>BOND
     1    24    23    1
     2    25    23    1
     3    26    23    1
     4    23     1    1
     5    22    19    1
     6    20    19    1
     7     1    19    1
     8     1     3    1
     9     1    27    1
    10    19    21    1
    11     3     5    1
    12    34    31    1
    13    29    27    1
    14    37    35    1
    15    27    28    1
    16    27    30    1
    17     4     5    1
    18     4     2    1
    19     5     6    1
    20    31    32    1
    21    31     2    1
    22    31    33    1
    23    35     2    1
    24    35    36    1
    25    35    38    1
    26     2    39    1
    27    15    14    1
    28     6    14   ar
    29     6     7   ar
    30     8     7    1
    31    14    12   ar
    32     7     9   ar
    33    39    42    1
    34    39    40    1
    35    39    41    1
    36    12    13    1
    37    12    11   ar
    38     9    11   ar
    39     9    10    1
    40    11    16    1
    41    44    43    1
    42    45    43    1
    43    43    16    1
    44    43    46    1
    45    16    17    1
    46    16    18    1
    47    52    49    1
    48    51    49    1
    49    49    46    1
    50    49    50    1
    51    46    48    1
    52    46    47    1
