@<TRIPOS>MOLECULE
3,4
 52 52 0 0 0
SMALL
GASTEIGER

@<TRIPOS>ATOM
      1 SI          6.7812    3.3904   17.7869 Si      1  UNL1        0.0000
      2 SI         10.6685    0.2759   15.4323 Si      1  UNL1        0.0000
      3 N           8.2112    2.4451   17.5398 N.3     1  UNL1        0.0000
      4 N           9.8147    1.2740   16.5759 N.3     1  UNL1        0.0000
      5 C           8.7683    2.0542   16.4147 C.3     1  UNL1        0.0000
      6 C           8.2155    2.4251   15.0957 C.ar    1  UNL1        0.0000
      7 C           8.7346    3.4828   14.3618 C.ar    1  UNL1        0.0000
      8 H           9.5725    4.0423   14.7510 H       1  UNL1        0.0000
      9 C           8.1738    3.8158   13.1427 C.ar    1  UNL1        0.0000
     10 H           8.5793    4.6410   12.5748 H       1  UNL1        0.0000
     11 C           7.0970    3.1005   12.6332 C.ar    1  UNL1        0.0000
     12 C           6.5879    2.0409   13.3750 C.ar    1  UNL1        0.0000
     13 H           5.7533    1.4737   12.9884 H       1  UNL1        0.0000
     14 C           7.1381    1.7023   14.5972 C.ar    1  UNL1        0.0000
     15 H           6.7483    0.8743   15.1727 H       1  UNL1        0.0000
     16 C           6.4620    3.5002   11.3338 C.3     1  UNL1        0.0000
     17 H           6.0252    2.6260   10.8471 H       1  UNL1        0.0000
     18 H           7.2148    3.9227   10.6651 H       1  UNL1        0.0000
     19 C           5.2306    2.2771   17.6374 C.3     1  UNL1        0.0000
     20 H           5.4821    1.2445   17.8704 H       1  UNL1        0.0000
     21 H           4.8219    2.2983   16.6307 H       1  UNL1        0.0000
     22 H           4.4437    2.5901   18.3163 H       1  UNL1        0.0000
     23 C           7.0016    4.0698   19.5590 C.3     1  UNL1        0.0000
     24 H           7.1387    3.2500   20.2597 H       1  UNL1        0.0000
     25 H           6.1400    4.6486   19.8759 H       1  UNL1        0.0000
     26 H           7.8778    4.7106   19.6246 H       1  UNL1        0.0000
     27 C           6.6320    4.8719   16.5820 C.3     1  UNL1        0.0000
     28 H           7.5660    5.4183   16.4927 H       1  UNL1        0.0000
     29 H           5.8788    5.5654   16.9411 H       1  UNL1        0.0000
     30 H           6.3397    4.5565   15.5856 H       1  UNL1        0.0000
     31 C          12.5068    0.3551   15.9525 C.3     1  UNL1        0.0000
     32 H          12.9063    1.3650   15.9169 H       1  UNL1        0.0000
     33 H          13.1107   -0.2615   15.2950 H       1  UNL1        0.0000
     34 H          12.6326   -0.0181   16.9644 H       1  UNL1        0.0000
     35 C           9.9675   -1.4974   15.5768 C.3     1  UNL1        0.0000
     36 H           8.9017   -1.5270   15.3582 H       1  UNL1        0.0000
     37 H          10.1008   -1.8748   16.5896 H       1  UNL1        0.0000
     38 H          10.4674   -2.1818   14.8985 H       1  UNL1        0.0000
     39 C          10.5423    0.8482   13.6102 C.3     1  UNL1        0.0000
     40 H           9.5350    0.7626   13.2166 H       1  UNL1        0.0000
     41 H          11.1889    0.2293   12.9977 H       1  UNL1        0.0000
     42 H          10.8585    1.8781   13.4824 H       1  UNL1        0.0000
     43 C           5.3629    4.5425   11.5740 C.3     1  UNL1        0.0000
     44 H           4.6108    4.1209   12.2449 H       1  UNL1        0.0000
     45 H           5.7975    5.4127   12.0715 H       1  UNL1        0.0000
     46 C           4.6969    4.9797   10.2722 C.3     1  UNL1        0.0000
     47 H           5.4516    5.4014    9.6043 H       1  UNL1        0.0000
     48 H           4.2671    4.1067    9.7756 H       1  UNL1        0.0000
     49 C           3.6035    6.0123   10.5164 C.3     1  UNL1        0.0000
     50 H           3.1434    6.3121    9.5778 H       1  UNL1        0.0000
     51 H           4.0152    6.8980   10.9955 H       1  UNL1        0.0000
     52 H           2.8300    5.6032   11.1627 H       1  UNL1        0.0000
@<TRIPOS>BOND
     1    50    49    1
     2    47    46    1
     3    48    46    1
     4    46    49    1
     5    46    43    1
     6    49    51    1
     7    49    52    1
     8    18    16    1
     9    17    16    1
    10    16    43    1
    11    16    11    1
    12    43    45    1
    13    43    44    1
    14    10     9    1
    15    11     9   ar
    16    11    12   ar
    17    13    12    1
    18    41    39    1
    19     9     7   ar
    20    40    39    1
    21    12    14   ar
    22    42    39    1
    23    39     2    1
    24     7     8    1
    25     7     6   ar
    26    14     6   ar
    27    14    15    1
    28    38    35    1
    29     6     5    1
    30    33    31    1
    31    36    35    1
    32     2    35    1
    33     2    31    1
    34     2     4    1
    35    35    37    1
    36    30    27    1
    37    32    31    1
    38    31    34    1
    39     5     4    1
    40     5     3    1
    41    28    27    1
    42    27    29    1
    43    27     1    1
    44    21    19    1
    45     3     1    1
    46    19     1    1
    47    19    20    1
    48    19    22    1
    49     1    23    1
    50    23    26    1
    51    23    25    1
    52    23    24    1
