@<TRIPOS>MOLECULE
4,5
 44 44 0 0 0
SMALL
GASTEIGER

@<TRIPOS>ATOM
      1 SI         -0.7331    4.5418    6.3996 Si      1  UNL1        0.0000
      2 SI         -5.1520    1.4217    5.3540 Si      1  UNL1        0.0000
      3 O          -3.3872    1.3063   11.4509 O.3     1  UNL1        0.0000
      4 N          -1.8976    3.5429    5.5761 N.3     1  UNL1        0.0000
      5 N          -3.7210    2.3756    5.1509 N.3     1  UNL1        0.0000
      6 C          -1.4383    6.3183    6.4571 C.3     1  UNL1        0.0000
      7 H          -1.6071    6.6907    5.4478 H       1  UNL1        0.0000
      8 H          -0.7586    7.0031    6.9546 H       1  UNL1        0.0000
      9 H          -2.3926    6.3540    6.9793 H       1  UNL1        0.0000
     10 C           0.8609    4.4440    5.3474 C.3     1  UNL1        0.0000
     11 H           1.2652    3.4367    5.2963 H       1  UNL1        0.0000
     12 H           1.6289    5.0859    5.7662 H       1  UNL1        0.0000
     13 H           0.6671    4.7781    4.3325 H       1  UNL1        0.0000
     14 C          -0.3059    3.9895    8.1818 C.3     1  UNL1        0.0000
     15 H           0.0481    2.9648    8.2182 H       1  UNL1        0.0000
     16 H          -1.1533    4.0695    8.8543 H       1  UNL1        0.0000
     17 H           0.4844    4.6228    8.5700 H       1  UNL1        0.0000
     18 C          -2.8360    2.7516    6.0478 C.3     1  UNL1        0.0000
     19 C          -2.9324    2.3462    7.4661 C.ar    1  UNL1        0.0000
     20 C          -2.1753    1.3036    7.9752 C.ar    1  UNL1        0.0000
     21 H          -1.4862    0.7791    7.3301 H       1  UNL1        0.0000
     22 C          -2.2985    0.9229    9.3012 C.ar    1  UNL1        0.0000
     23 H          -1.6992    0.1049    9.6685 H       1  UNL1        0.0000
     24 C          -3.1846    1.5944   10.1368 C.ar    1  UNL1        0.0000
     25 C          -3.9426    2.6495    9.6224 C.ar    1  UNL1        0.0000
     26 H          -4.6207    3.1620   10.2862 H       1  UNL1        0.0000
     27 C          -3.8203    3.0195    8.3011 C.ar    1  UNL1        0.0000
     28 H          -4.4012    3.8385    7.9019 H       1  UNL1        0.0000
     29 C          -2.6455    0.2629   12.0352 C.3     1  UNL1        0.0000
     30 H          -2.9652    0.2218   13.0752 H       1  UNL1        0.0000
     31 H          -1.5701    0.4629   11.9956 H       1  UNL1        0.0000
     32 H          -2.8557   -0.6982   11.5549 H       1  UNL1        0.0000
     33 C          -4.9077   -0.0685    6.5325 C.3     1  UNL1        0.0000
     34 H          -4.8890    0.2384    7.5730 H       1  UNL1        0.0000
     35 H          -3.9822   -0.5987    6.3293 H       1  UNL1        0.0000
     36 H          -5.7237   -0.7734    6.4123 H       1  UNL1        0.0000
     37 C          -6.5836    2.5257    5.9847 C.3     1  UNL1        0.0000
     38 H          -6.4017    3.5663    5.7236 H       1  UNL1        0.0000
     39 H          -6.6841    2.4684    7.0651 H       1  UNL1        0.0000
     40 H          -7.5359    2.2357    5.5520 H       1  UNL1        0.0000
     41 C          -5.4933    0.7506    3.5975 C.3     1  UNL1        0.0000
     42 H          -5.5928    1.5748    2.8960 H       1  UNL1        0.0000
     43 H          -6.4045    0.1621    3.5639 H       1  UNL1        0.0000
     44 H          -4.6751    0.1214    3.2550 H       1  UNL1        0.0000
@<TRIPOS>BOND
     1    42    41    1
     2    44    41    1
     3    43    41    1
     4    41     2    1
     5    13    10    1
     6     5     2    1
     7     5    18    1
     8    11    10    1
     9    10    12    1
    10    10     1    1
    11     2    37    1
    12     2    33    1
    13     7     6    1
    14    40    37    1
    15     4    18    1
    16     4     1    1
    17    38    37    1
    18    37    39    1
    19    18    19    1
    20    35    33    1
    21     1     6    1
    22     1    14    1
    23    36    33    1
    24     6     8    1
    25     6     9    1
    26    33    34    1
    27    21    20    1
    28    19    20   ar
    29    19    27   ar
    30    28    27    1
    31    20    22   ar
    32    14    15    1
    33    14    17    1
    34    14    16    1
    35    27    25   ar
    36    22    23    1
    37    22    24   ar
    38    25    24   ar
    39    25    26    1
    40    24     3    1
    41     3    29    1
    42    32    29    1
    43    31    29    1
    44    29    30    1
