@<TRIPOS>MOLECULE
3,4
 46 46 0 0 0
SMALL
GASTEIGER

@<TRIPOS>ATOM
      1 SI         -0.9700    8.8455    6.4678 Si      1  UNL1        0.0000
      2 SI         -5.3503    5.7235    5.2724 Si      1  UNL1        0.0000
      3 N          -2.1063    7.8482    5.6035 N.3     1  UNL1        0.0000
      4 N          -3.9113    6.6747    5.1177 N.3     1  UNL1        0.0000
      5 C          -0.5875    8.2750    8.2546 C.3     1  UNL1        0.0000
      6 H          -0.2460    7.2459    8.2902 H       1  UNL1        0.0000
      7 H          -1.4471    8.3589    8.9109 H       1  UNL1        0.0000
      8 H           0.2018    8.8959    8.6644 H       1  UNL1        0.0000
      9 C          -1.6840   10.6188    6.5215 C.3     1  UNL1        0.0000
     10 H          -1.8333   10.9958    5.5107 H       1  UNL1        0.0000
     11 H          -1.0173   11.3035    7.0365 H       1  UNL1        0.0000
     12 H          -2.6492   10.6485    7.0236 H       1  UNL1        0.0000
     13 C           0.6537    8.7664    5.4610 C.3     1  UNL1        0.0000
     14 H           0.4965    9.1441    4.4552 H       1  UNL1        0.0000
     15 H           1.0452    7.7560    5.3810 H       1  UNL1        0.0000
     16 H           1.4169    9.3794    5.9291 H       1  UNL1        0.0000
     17 C          -3.0655    7.0645    6.0458 C.3     1  UNL1        0.0000
     18 C          -3.2259    6.6922    7.4667 C.ar    1  UNL1        0.0000
     19 C          -2.5200    5.6351    8.0244 C.ar    1  UNL1        0.0000
     20 H          -1.8315    5.0708    7.4127 H       1  UNL1        0.0000
     21 C          -2.7049    5.3095    9.3554 C.ar    1  UNL1        0.0000
     22 H          -2.1551    4.4844    9.7856 H       1  UNL1        0.0000
     23 C          -3.5890    6.0290   10.1498 C.ar    1  UNL1        0.0000
     24 C          -4.2890    7.0868    9.5813 C.ar    1  UNL1        0.0000
     25 H          -4.9778    7.6561   10.1888 H       1  UNL1        0.0000
     26 C          -4.1153    7.4178    8.2504 C.ar    1  UNL1        0.0000
     27 H          -4.6554    8.2429    7.8073 H       1  UNL1        0.0000
     28 C          -3.7407    5.7078   11.6088 C.3     1  UNL1        0.0000
     29 H          -4.7532    5.9474   11.9388 H       1  UNL1        0.0000
     30 H          -3.5696    4.6424   11.7743 H       1  UNL1        0.0000
     31 C          -2.7366    6.5144   12.4353 C.3     1  UNL1        0.0000
     32 H          -2.8396    6.2816   13.4924 H       1  UNL1        0.0000
     33 H          -2.9021    7.5801   12.2960 H       1  UNL1        0.0000
     34 H          -1.7200    6.2839   12.1250 H       1  UNL1        0.0000
     35 C          -6.7991    6.8279    5.8613 C.3     1  UNL1        0.0000
     36 H          -6.6322    7.8613    5.5647 H       1  UNL1        0.0000
     37 H          -6.9001    6.8068    6.9430 H       1  UNL1        0.0000
     38 H          -7.7461    6.5081    5.4384 H       1  UNL1        0.0000
     39 C          -5.1451    4.2313    6.4554 C.3     1  UNL1        0.0000
     40 H          -5.1416    4.5365    7.4967 H       1  UNL1        0.0000
     41 H          -4.2226    3.6899    6.2687 H       1  UNL1        0.0000
     42 H          -5.9668    3.5362    6.3196 H       1  UNL1        0.0000
     43 C          -5.6363    5.0580    3.5045 C.3     1  UNL1        0.0000
     44 H          -5.6992    5.8826    2.7991 H       1  UNL1        0.0000
     45 H          -6.5535    4.4817    3.4377 H       1  UNL1        0.0000
     46 H          -4.8151    4.4173    3.1919 H       1  UNL1        0.0000
@<TRIPOS>BOND
     1    44    43    1
     2    46    43    1
     3    45    43    1
     4    43     2    1
     5    14    13    1
     6     4     2    1
     7     4    17    1
     8     2    35    1
     9     2    39    1
    10    15    13    1
    11    38    35    1
    12    13    16    1
    13    13     1    1
    14    10     9    1
    15    36    35    1
    16     3    17    1
    17     3     1    1
    18    35    37    1
    19    17    18    1
    20    41    39    1
    21    42    39    1
    22    39    40    1
    23     1     9    1
    24     1     5    1
    25     9    12    1
    26     9    11    1
    27    20    19    1
    28    18    19   ar
    29    18    26   ar
    30    27    26    1
    31    19    21   ar
    32    26    24   ar
    33     5     6    1
    34     5     8    1
    35     5     7    1
    36    21    22    1
    37    21    23   ar
    38    24    23   ar
    39    24    25    1
    40    23    28    1
    41    28    30    1
    42    28    29    1
    43    28    31    1
    44    34    31    1
    45    33    31    1
    46    31    32    1
