@<TRIPOS>MOLECULE
3,4
 46 46 0 0 0
SMALL
GASTEIGER

@<TRIPOS>ATOM
      1 SI         -5.3462    8.8454    1.4040 Si      1  UNL1        0.0000
      2 SI         -0.9659    5.7235    2.5993 Si      1  UNL1        0.0000
      3 N          -4.2099    7.8482    2.2682 N.3     1  UNL1        0.0000
      4 N          -2.4049    6.6746    2.7540 N.3     1  UNL1        0.0000
      5 C          -5.7287    8.2750   -0.3829 C.3     1  UNL1        0.0000
      6 H          -6.0703    7.2459   -0.4184 H       1  UNL1        0.0000
      7 H          -4.8691    8.3589   -1.0391 H       1  UNL1        0.0000
      8 H          -6.5179    8.8959   -0.7927 H       1  UNL1        0.0000
      9 C          -4.6322   10.6188    1.3503 C.3     1  UNL1        0.0000
     10 H          -4.4830   10.9958    2.3611 H       1  UNL1        0.0000
     11 H          -5.2989   11.3035    0.8353 H       1  UNL1        0.0000
     12 H          -3.6671   10.6486    0.8482 H       1  UNL1        0.0000
     13 C          -6.9699    8.7664    2.4107 C.3     1  UNL1        0.0000
     14 H          -6.8127    9.1441    3.4165 H       1  UNL1        0.0000
     15 H          -7.3614    7.7559    2.4907 H       1  UNL1        0.0000
     16 H          -7.7331    9.3793    1.9427 H       1  UNL1        0.0000
     17 C          -3.2507    7.0645    1.8259 C.3     1  UNL1        0.0000
     18 C          -3.0903    6.6921    0.4050 C.ar    1  UNL1        0.0000
     19 C          -3.7962    5.6351   -0.1527 C.ar    1  UNL1        0.0000
     20 H          -4.4847    5.0708    0.4590 H       1  UNL1        0.0000
     21 C          -3.6113    5.3094   -1.4837 C.ar    1  UNL1        0.0000
     22 H          -4.1610    4.4844   -1.9139 H       1  UNL1        0.0000
     23 C          -2.7272    6.0290   -2.2780 C.ar    1  UNL1        0.0000
     24 C          -2.0272    7.0867   -1.7095 C.ar    1  UNL1        0.0000
     25 H          -1.3383    7.6561   -2.3171 H       1  UNL1        0.0000
     26 C          -2.2009    7.4178   -0.3786 C.ar    1  UNL1        0.0000
     27 H          -1.6608    8.2428    0.0645 H       1  UNL1        0.0000
     28 C          -2.5755    5.7078   -3.7371 C.3     1  UNL1        0.0000
     29 H          -1.5630    5.9474   -4.0671 H       1  UNL1        0.0000
     30 H          -2.7466    4.6424   -3.9026 H       1  UNL1        0.0000
     31 C          -3.5796    6.5144   -4.5635 C.3     1  UNL1        0.0000
     32 H          -3.4767    6.2816   -5.6207 H       1  UNL1        0.0000
     33 H          -3.4140    7.5802   -4.4242 H       1  UNL1        0.0000
     34 H          -4.5961    6.2840   -4.2532 H       1  UNL1        0.0000
     35 C           0.4829    6.8279    2.0104 C.3     1  UNL1        0.0000
     36 H           0.3160    7.8613    2.3071 H       1  UNL1        0.0000
     37 H           0.5839    6.8068    0.9287 H       1  UNL1        0.0000
     38 H           1.4299    6.5081    2.4333 H       1  UNL1        0.0000
     39 C          -1.1711    4.2313    1.4163 C.3     1  UNL1        0.0000
     40 H          -1.1745    4.5364    0.3750 H       1  UNL1        0.0000
     41 H          -2.0936    3.6899    1.6030 H       1  UNL1        0.0000
     42 H          -0.3493    3.5362    1.5521 H       1  UNL1        0.0000
     43 C          -0.6798    5.0580    4.3673 C.3     1  UNL1        0.0000
     44 H          -0.6170    5.8826    5.0726 H       1  UNL1        0.0000
     45 H           0.2373    4.4817    4.4341 H       1  UNL1        0.0000
     46 H          -1.5011    4.4173    4.6799 H       1  UNL1        0.0000
@<TRIPOS>BOND
     1    32    31    1
     2    31    33    1
     3    31    34    1
     4    31    28    1
     5    29    28    1
     6    30    28    1
     7    28    23    1
     8    25    24    1
     9    23    24   ar
    10    23    21   ar
    11    22    21    1
    12    24    26   ar
    13    21    19   ar
    14     7     5    1
    15     8     5    1
    16     6     5    1
    17     5     1    1
    18    26    27    1
    19    26    18   ar
    20    19    18   ar
    21    19    20    1
    22    40    39    1
    23    18    17    1
    24    11     9    1
    25    12     9    1
    26    37    35    1
    27     9     1    1
    28     9    10    1
    29     1     3    1
    30     1    13    1
    31    39    42    1
    32    39    41    1
    33    39     2    1
    34    17     3    1
    35    17     4    1
    36    16    13    1
    37    35    36    1
    38    35    38    1
    39    35     2    1
    40    13    15    1
    41    13    14    1
    42     2     4    1
    43     2    43    1
    44    43    45    1
    45    43    46    1
    46    43    44    1
