@<TRIPOS>MOLECULE
1,18
 44 45 0 0 0
SMALL
GASTEIGER

@<TRIPOS>ATOM
      1 N           5.2344    5.5247    7.3470 N.pl3   1  UNL1       -0.2427
      2 C           6.4208    5.0276    7.0366 C.3     1  UNL1        0.0847
      3 H           6.6992    5.0938    5.9930 H       1  UNL1        0.0584
      4 C           7.2710    4.4633    7.9677 C.2     1  UNL1       -0.0563
      5 H           8.2225    4.0766    7.6410 H       1  UNL1        0.0595
      6 C           6.8819    4.3979    9.3052 C.2     1  UNL1       -0.0425
      7 C           5.6456    4.9454    9.6172 C.2     1  UNL1       -0.0372
      8 H           5.2988    4.9318   10.6339 H       1  UNL1        0.0637
      9 C           4.8371    5.4989    8.6248 C.2     1  UNL1        0.0581
     10 C           3.5185    6.0972    8.9197 C.3     1  UNL1        0.1422
     11 C           2.9776    6.1253   10.2021 C.2     1  UNL1       -0.0470
     12 H           3.5246    5.6894   11.0202 H       1  UNL1        0.0601
     13 C           1.7234    6.6791   10.4403 C.2     1  UNL1       -0.0422
     14 C           1.0647    7.2227    9.3421 C.2     1  UNL1       -0.0429
     15 H           0.0919    7.6747    9.4295 H       1  UNL1        0.0633
     16 C           1.6683    7.1700    8.0970 C.2     1  UNL1        0.0132
     17 H           1.1758    7.5864    7.2285 H       1  UNL1        0.0798
     18 N           2.8508    6.6219    7.8833 N.pl3   1  UNL1       -0.2387
     19 C           7.7984    3.7795   10.3426 C.3     1  UNL1       -0.0129
     20 C           9.0779    4.6254   10.4207 C.3     1  UNL1       -0.0561
     21 H           8.8392    5.6509   10.6955 H       1  UNL1        0.0238
     22 H           9.6002    4.6402    9.4680 H       1  UNL1        0.0238
     23 H           9.7485    4.2148   11.1717 H       1  UNL1        0.0238
     24 C           7.1586    3.7239   11.7318 C.3     1  UNL1       -0.0561
     25 H           6.9563    4.7220   12.1149 H       1  UNL1        0.0238
     26 H           7.8411    3.2355   12.4237 H       1  UNL1        0.0238
     27 H           6.2346    3.1500   11.7090 H       1  UNL1        0.0238
     28 C           8.1443    2.3460    9.9194 C.3     1  UNL1       -0.0561
     29 H           8.6451    2.3214    8.9560 H       1  UNL1        0.0238
     30 H           7.2376    1.7503    9.8515 H       1  UNL1        0.0238
     31 H           8.8039    1.8922   10.6556 H       1  UNL1        0.0238
     32 C           1.1398    6.6532   11.8402 C.3     1  UNL1       -0.0128
     33 C           2.0854    7.4010   12.7908 C.3     1  UNL1       -0.0561
     34 H           3.0625    6.9279   12.8391 H       1  UNL1        0.0238
     35 H           1.6664    7.4143   13.7942 H       1  UNL1        0.0238
     36 H           2.2189    8.4290   12.4600 H       1  UNL1        0.0238
     37 C           0.9977    5.1898   12.2833 C.3     1  UNL1       -0.0561
     38 H           1.9595    4.6845   12.3075 H       1  UNL1        0.0238
     39 H           0.3465    4.6498   11.5992 H       1  UNL1        0.0238
     40 H           0.5636    5.1441   13.2794 H       1  UNL1        0.0238
     41 C          -0.2379    7.3164   11.9071 C.3     1  UNL1       -0.0561
     42 H          -0.1842    8.3625   11.6142 H       1  UNL1        0.0238
     43 H          -0.6103    7.2731   12.9282 H       1  UNL1        0.0238
     44 H          -0.9521    6.8017   11.2689 H       1  UNL1        0.0238
@<TRIPOS>BOND
     1     3     2    1
     2     2     1    1
     3     2     4    1
     4    17    16    1
     5     1     9    1
     6     5     4    1
     7    18    16    1
     8    18    10    1
     9     4     6    2
    10    16    14    2
    11     9    10    1
    12     9     7    2
    13    10    11    1
    14    29    28    1
    15     6     7    1
    16     6    19    1
    17    14    15    1
    18    14    13    1
    19    22    20    1
    20     7     8    1
    21    30    28    1
    22    28    19    1
    23    28    31    1
    24    11    13    2
    25    11    12    1
    26    19    20    1
    27    19    24    1
    28    20    21    1
    29    20    23    1
    30    13    32    1
    31    44    41    1
    32    39    37    1
    33    42    41    1
    34    27    24    1
    35    24    25    1
    36    24    26    1
    37    32    41    1
    38    32    37    1
    39    32    33    1
    40    41    43    1
    41    37    38    1
    42    37    40    1
    43    36    33    1
    44    33    34    1
    45    33    35    1
