@<TRIPOS>MOLECULE
1,16
 44 45 0 0 0
SMALL
GASTEIGER

@<TRIPOS>ATOM
      1 N           7.9784    7.0088    3.4581 N.pl3   1  UNL1       -0.2427
      2 C           7.6692    6.7612    2.1913 C.3     1  UNL1        0.0847
      3 H           6.7325    7.1596    1.8321 H       1  UNL1        0.0584
      4 C           8.4731    6.0106    1.3592 C.2     1  UNL1       -0.0563
      5 H           8.1453    5.8296    0.3493 H       1  UNL1        0.0595
      6 C           9.6795    5.4884    1.8308 C.2     1  UNL1       -0.0425
      7 C          10.0069    5.7895    3.1441 C.2     1  UNL1       -0.0372
      8 H          10.9285    5.4314    3.5666 H       1  UNL1        0.0637
      9 C           9.1424    6.5493    3.9316 C.2     1  UNL1        0.0581
     10 C           9.3962    6.8793    5.3356 C.3     1  UNL1        0.1422
     11 C          10.5572    6.5066    6.0067 C.2     1  UNL1       -0.0470
     12 H          11.3198    5.9675    5.4706 H       1  UNL1        0.0601
     13 C          10.7576    6.8433    7.3398 C.2     1  UNL1       -0.0422
     14 C           9.7122    7.5195    7.9637 C.2     1  UNL1       -0.0429
     15 H           9.7620    7.8042    9.0005 H       1  UNL1        0.0633
     16 N           8.4243    7.5818    5.9495 N.pl3   1  UNL1       -0.2387
     17 C           8.5862    7.8614    7.2372 C.2     1  UNL1        0.0132
     18 H           7.7799    8.3979    7.7197 H       1  UNL1        0.0798
     19 C          10.5246    4.5847    0.9542 C.3     1  UNL1       -0.0129
     20 C          10.7209    5.2251   -0.4252 C.3     1  UNL1       -0.0561
     21 H           9.7832    5.3102   -0.9660 H       1  UNL1        0.0238
     22 H          11.3959    4.6159   -1.0223 H       1  UNL1        0.0238
     23 H          11.1483    6.2181   -0.3158 H       1  UNL1        0.0238
     24 C          11.9043    4.3145    1.5601 C.3     1  UNL1       -0.0561
     25 H          11.8266    3.7430    2.4824 H       1  UNL1        0.0238
     26 H          12.4254    5.2485    1.7554 H       1  UNL1        0.0238
     27 H          12.4993    3.7309    0.8613 H       1  UNL1        0.0238
     28 C           9.7750    3.2515    0.8049 C.3     1  UNL1       -0.0561
     29 H           8.8004    3.4019    0.3478 H       1  UNL1        0.0238
     30 H           9.6275    2.7854    1.7772 H       1  UNL1        0.0238
     31 H          10.3478    2.5710    0.1792 H       1  UNL1        0.0238
     32 C          12.0571    6.4790    8.0304 C.3     1  UNL1       -0.0128
     33 C          13.2178    7.1279    7.2622 C.3     1  UNL1       -0.0561
     34 H          14.1593    6.9129    7.7625 H       1  UNL1        0.0238
     35 H          13.0880    8.2072    7.2218 H       1  UNL1        0.0238
     36 H          13.2812    6.7531    6.2443 H       1  UNL1        0.0238
     37 C          12.2133    4.9516    8.0253 C.3     1  UNL1       -0.0561
     38 H          11.3804    4.4844    8.5465 H       1  UNL1        0.0238
     39 H          13.1349    4.6727    8.5304 H       1  UNL1        0.0238
     40 H          12.2477    4.5567    7.0135 H       1  UNL1        0.0238
     41 C          12.1009    6.9681    9.4798 C.3     1  UNL1       -0.0561
     42 H          11.3145    6.5083   10.0738 H       1  UNL1        0.0238
     43 H          12.0025    8.0498    9.5306 H       1  UNL1        0.0238
     44 H          13.0563    6.6975    9.9237 H       1  UNL1        0.0238
@<TRIPOS>BOND
     1    22    20    1
     2    21    20    1
     3    20    23    1
     4    20    19    1
     5    31    28    1
     6    29    28    1
     7     5     4    1
     8    28    19    1
     9    28    30    1
    10    27    24    1
    11    19    24    1
    12    19     6    1
    13     4     6    2
    14     4     2    1
    15    24    26    1
    16    24    25    1
    17     6     7    1
    18     3     2    1
    19     2     1    1
    20     7     8    1
    21     7     9    2
    22     1     9    1
    23     9    10    1
    24    10    16    1
    25    10    11    1
    26    12    11    1
    27    16    17    1
    28    11    13    2
    29    36    33    1
    30    40    37    1
    31    35    33    1
    32    17    18    1
    33    17    14    2
    34    33    34    1
    35    33    32    1
    36    13    14    1
    37    13    32    1
    38    14    15    1
    39    37    32    1
    40    37    39    1
    41    37    38    1
    42    32    41    1
    43    41    43    1
    44    41    44    1
    45    41    42    1
