@<TRIPOS>MOLECULE
1,18
 44 45 0 0 0
SMALL
GASTEIGER

@<TRIPOS>ATOM
      1 N           1.3592    6.8304    2.8280 N.pl3   1  UNL1       -0.2427
      2 C           1.5489    6.2085    1.6565 C.3     1  UNL1        0.0847
      3 H           0.9982    6.5974    0.8107 H       1  UNL1        0.0584
      4 C           2.3837    5.1311    1.4822 C.2     1  UNL1       -0.0563
      5 H           2.4695    4.6982    0.4989 H       1  UNL1        0.0595
      6 C           3.1050    4.6115    2.5653 C.2     1  UNL1       -0.0425
      7 C           2.9151    5.2534    3.7737 C.2     1  UNL1       -0.0372
      8 H           3.4365    4.9178    4.6523 H       1  UNL1        0.0637
      9 C           2.0523    6.3477    3.8883 C.2     1  UNL1        0.0581
     10 C           1.8413    7.0623    5.1330 C.3     1  UNL1        0.1422
     11 C           2.4567    6.7353    6.3422 C.2     1  UNL1       -0.0470
     12 H           3.1178    5.8861    6.3830 H       1  UNL1        0.0601
     13 C           2.2315    7.4842    7.4853 C.2     1  UNL1       -0.0422
     14 C           1.3672    8.5756    7.3445 C.2     1  UNL1       -0.0429
     15 H           1.1392    9.2217    8.1747 H       1  UNL1        0.0633
     16 C           0.7852    8.8402    6.1250 C.2     1  UNL1        0.0132
     17 H           0.1210    9.6880    6.0246 H       1  UNL1        0.0798
     18 N           0.9965    8.1082    5.0306 N.pl3   1  UNL1       -0.2387
     19 C           4.0242    3.4219    2.3755 C.3     1  UNL1       -0.0129
     20 C           3.1946    2.2338    1.8681 C.3     1  UNL1       -0.0561
     21 H           2.4152    1.9833    2.5847 H       1  UNL1        0.0238
     22 H           3.8339    1.3641    1.7361 H       1  UNL1        0.0238
     23 H           2.7233    2.4569    0.9150 H       1  UNL1        0.0238
     24 C           5.0980    3.7881    1.3410 C.3     1  UNL1       -0.0561
     25 H           5.6729    4.6472    1.6806 H       1  UNL1        0.0238
     26 H           4.6559    4.0316    0.3790 H       1  UNL1        0.0238
     27 H           5.7786    2.9517    1.2006 H       1  UNL1        0.0238
     28 C           4.7222    3.0075    3.6732 C.3     1  UNL1       -0.0561
     29 H           5.3434    3.8130    4.0588 H       1  UNL1        0.0238
     30 H           5.3662    2.1526    3.4797 H       1  UNL1        0.0238
     31 H           3.9989    2.7157    4.4316 H       1  UNL1        0.0238
     32 C           2.9049    7.1096    8.7915 C.3     1  UNL1       -0.0128
     33 C           4.4272    7.1770    8.6021 C.3     1  UNL1       -0.0561
     34 H           4.7265    8.1796    8.3034 H       1  UNL1        0.0238
     35 H           4.7654    6.4799    7.8402 H       1  UNL1        0.0238
     36 H           4.9294    6.9312    9.5349 H       1  UNL1        0.0238
     37 C           2.4858    5.6827    9.1735 C.3     1  UNL1       -0.0561
     38 H           1.4040    5.6204    9.2704 H       1  UNL1        0.0238
     39 H           2.9340    5.4055   10.1248 H       1  UNL1        0.0238
     40 H           2.8021    4.9602    8.4260 H       1  UNL1        0.0238
     41 C           2.5169    8.0495    9.9354 C.3     1  UNL1       -0.0561
     42 H           1.4450    8.0231   10.1170 H       1  UNL1        0.0238
     43 H           2.8190    9.0723    9.7223 H       1  UNL1        0.0238
     44 H           3.0193    7.7355   10.8477 H       1  UNL1        0.0238
@<TRIPOS>BOND
     1    26    24    1
     2     5     4    1
     3     3     2    1
     4    23    20    1
     5    27    24    1
     6    24    25    1
     7    24    19    1
     8     4     2    1
     9     4     6    2
    10     2     1    1
    11    22    20    1
    12    20    19    1
    13    20    21    1
    14    19     6    1
    15    19    28    1
    16     6     7    1
    17     1     9    1
    18    30    28    1
    19    28    29    1
    20    28    31    1
    21     7     9    2
    22     7     8    1
    23     9    10    1
    24    18    10    1
    25    18    16    1
    26    10    11    1
    27    17    16    1
    28    16    14    2
    29    11    12    1
    30    11    13    2
    31    14    13    1
    32    14    15    1
    33    13    32    1
    34    35    33    1
    35    34    33    1
    36    40    37    1
    37    33    32    1
    38    33    36    1
    39    32    37    1
    40    32    41    1
    41    37    38    1
    42    37    39    1
    43    43    41    1
    44    41    42    1
    45    41    44    1
