@<TRIPOS>MOLECULE
4,5
 65 66 0 0 0
SMALL
GASTEIGER

@<TRIPOS>ATOM
      1 SI         14.8495    4.4555    5.2466 Si      1  UNL1        0.0000
      2 N          12.9361    7.4158    3.5019 N.3     1  UNL1        0.0000
      3 H          13.2612    7.0842    2.5923 H       1  UNL1        0.0000
      4 N          13.8262    5.4642    4.2288 N.3     1  UNL1        0.0000
      5 N          15.5046    3.7347    3.7790 N.3     1  UNL1        0.0000
      6 N          17.1179    2.6725    2.5786 N.3     1  UNL1        0.0000
      7 H          16.8409    3.3301    1.8480 H       1  UNL1        0.0000
      8 C          12.3109    8.7397    3.4707 C.3     1  UNL1        0.0000
      9 C          11.8370    8.9286    2.0270 C.3     1  UNL1        0.0000
     10 H          11.3843    9.9084    1.9051 H       1  UNL1        0.0000
     11 H          11.0974    8.1726    1.7755 H       1  UNL1        0.0000
     12 H          12.6766    8.8506    1.3394 H       1  UNL1        0.0000
     13 C          11.1115    8.8065    4.4166 C.3     1  UNL1        0.0000
     14 H          11.4248    8.8200    5.4556 H       1  UNL1        0.0000
     15 H          10.4558    7.9531    4.2605 H       1  UNL1        0.0000
     16 H          10.5493    9.7154    4.2214 H       1  UNL1        0.0000
     17 C          13.3372    9.8245    3.8110 C.3     1  UNL1        0.0000
     18 H          14.2402    9.6835    3.2218 H       1  UNL1        0.0000
     19 H          13.5938    9.8005    4.8653 H       1  UNL1        0.0000
     20 H          12.9261   10.8041    3.5844 H       1  UNL1        0.0000
     21 C          13.3096    6.6235    4.5038 C.3     1  UNL1        0.0000
     22 C          13.1470    7.0276    5.9215 C.ar    1  UNL1        0.0000
     23 C          14.0617    7.8815    6.5268 C.ar    1  UNL1        0.0000
     24 H          14.8835    8.2816    5.9527 H       1  UNL1        0.0000
     25 C          13.9287    8.1980    7.8684 C.ar    1  UNL1        0.0000
     26 H          14.6392    8.8642    8.3333 H       1  UNL1        0.0000
     27 C          12.8909    7.6612    8.6117 C.ar    1  UNL1        0.0000
     28 H          12.7874    7.9140    9.6554 H       1  UNL1        0.0000
     29 C          11.9905    6.7933    8.0152 C.ar    1  UNL1        0.0000
     30 H          11.1866    6.3666    8.5952 H       1  UNL1        0.0000
     31 C          12.1212    6.4688    6.6767 C.ar    1  UNL1        0.0000
     32 H          11.4255    5.7934    6.2027 H       1  UNL1        0.0000
     33 C          13.8897    3.4141    6.5220 C.3     1  UNL1        0.0000
     34 H          13.3925    4.0649    7.2350 H       1  UNL1        0.0000
     35 H          14.5677    2.7746    7.0774 H       1  UNL1        0.0000
     36 H          13.1377    2.7827    6.0578 H       1  UNL1        0.0000
     37 C          16.2600    5.4176    6.0950 C.3     1  UNL1        0.0000
     38 H          16.7608    6.0957    5.4095 H       1  UNL1        0.0000
     39 H          17.0017    4.7303    6.4871 H       1  UNL1        0.0000
     40 H          15.8810    5.9969    6.9286 H       1  UNL1        0.0000
     41 C          16.4179    2.8045    3.6992 C.3     1  UNL1        0.0000
     42 C          16.6737    1.9509    4.8823 C.ar    1  UNL1        0.0000
     43 C          15.7208    1.0004    5.2359 C.ar    1  UNL1        0.0000
     44 H          14.8427    0.8722    4.6185 H       1  UNL1        0.0000
     45 C          15.9083    0.2258    6.3672 C.ar    1  UNL1        0.0000
     46 H          15.1757   -0.5212    6.6313 H       1  UNL1        0.0000
     47 C          17.0290    0.4126    7.1604 C.ar    1  UNL1        0.0000
     48 H          17.1720   -0.1904    8.0438 H       1  UNL1        0.0000
     49 C          17.9652    1.3761    6.8222 C.ar    1  UNL1        0.0000
     50 H          18.8351    1.5272    7.4430 H       1  UNL1        0.0000
     51 C          17.7930    2.1444    5.6835 C.ar    1  UNL1        0.0000
     52 H          18.5220    2.8944    5.4152 H       1  UNL1        0.0000
     53 C          17.8730    1.5254    2.0521 C.3     1  UNL1        0.0000
     54 C          16.9814    0.2812    2.0580 C.3     1  UNL1        0.0000
     55 H          17.4675   -0.5209    1.5101 H       1  UNL1        0.0000
     56 H          16.0306    0.5043    1.5771 H       1  UNL1        0.0000
     57 H          16.7925   -0.0617    3.0718 H       1  UNL1        0.0000
     58 C          19.1530    1.2881    2.8543 C.3     1  UNL1        0.0000
     59 H          19.7703    0.5604    2.3351 H       1  UNL1        0.0000
     60 H          18.9367    0.9025    3.8459 H       1  UNL1        0.0000
     61 H          19.7192    2.2116    2.9483 H       1  UNL1        0.0000
     62 C          18.2284    1.8988    0.6120 C.3     1  UNL1        0.0000
     63 H          18.8437    2.7956    0.5898 H       1  UNL1        0.0000
     64 H          17.3235    2.0737    0.0336 H       1  UNL1        0.0000
     65 H          18.7842    1.0929    0.1419 H       1  UNL1        0.0000
@<TRIPOS>BOND
     1    64    62    1
     2    65    62    1
     3    63    62    1
     4    62    53    1
     5    12     9    1
     6    55    54    1
     7    56    54    1
     8    11     9    1
     9     7     6    1
    10    10     9    1
    11     9     8    1
    12    53    54    1
    13    53     6    1
    14    53    58    1
    15    54    57    1
    16    59    58    1
    17     6    41    1
    18     3     2    1
    19    58    61    1
    20    58    60    1
    21    18    17    1
    22     8     2    1
    23     8    17    1
    24     8    13    1
    25     2    21    1
    26    20    17    1
    27    41     5    1
    28    41    42    1
    29     5     1    1
    30    17    19    1
    31    16    13    1
    32     4    21    1
    33     4     1    1
    34    15    13    1
    35    13    14    1
    36    21    22    1
    37    44    43    1
    38    42    43   ar
    39    42    51   ar
    40    43    45   ar
    41     1    37    1
    42     1    33    1
    43    38    37    1
    44    52    51    1
    45    51    49   ar
    46    22    23   ar
    47    22    31   ar
    48    24    23    1
    49    36    33    1
    50    37    39    1
    51    37    40    1
    52    32    31    1
    53    45    46    1
    54    45    47   ar
    55    33    35    1
    56    33    34    1
    57    23    25   ar
    58    31    29   ar
    59    49    47   ar
    60    49    50    1
    61    47    48    1
    62    25    26    1
    63    25    27   ar
    64    29    30    1
    65    29    27   ar
    66    27    28    1
