@<TRIPOS>MOLECULE
1,13
 22 24 0 0 0
SMALL
GASTEIGER

@<TRIPOS>ATOM
      1 N           9.0113    3.0969   19.7203 N.pl3   1  UNL1       -0.2201
      2 C           7.7120    3.0648   19.5394 C.2     1  UNL1        0.0175
      3 C           6.9435    4.2243   19.3819 C.2     1  UNL1       -0.0454
      4 C           7.5617    5.4492   19.4416 C.2     1  UNL1       -0.0515
      5 C           8.9493    5.5072   19.6562 C.ar    1  UNL1       -0.0001
      6 C           9.6367    4.2795   19.7773 C.ar    1  UNL1        0.0836
      7 C           9.6780    6.7265   19.7650 C.ar    1  UNL1       -0.0521
      8 H           7.2691    2.0768   19.5182 H       1  UNL1        0.0802
      9 H           5.8800    4.1441   19.2247 H       1  UNL1        0.0631
     10 H           7.0004    6.3658   19.3322 H       1  UNL1        0.0624
     11 H           9.1329    7.6544   19.6721 H       1  UNL1        0.0624
     12 C          11.0575    4.2799   19.9749 C.ar    1  UNL1        0.0836
     13 N          11.6837    3.0976   20.0306 N.pl3   1  UNL1       -0.2201
     14 C          12.9828    3.0662   20.2128 C.2     1  UNL1        0.0175
     15 C          13.7505    4.2260   20.3723 C.2     1  UNL1       -0.0454
     16 C          13.1316    5.4505   20.3124 C.2     1  UNL1       -0.0515
     17 C          11.7441    5.5079   20.0973 C.ar    1  UNL1       -0.0001
     18 C          11.0149    6.7268   19.9883 C.ar    1  UNL1       -0.0521
     19 H          11.5594    7.6550   20.0814 H       1  UNL1        0.0624
     20 H          13.6926    6.3674   20.4216 H       1  UNL1        0.0624
     21 H          14.8139    4.1463   20.5301 H       1  UNL1        0.0631
     22 H          13.4260    2.0783   20.2362 H       1  UNL1        0.0802
@<TRIPOS>BOND
     1     9     3    1
     2    10     4    1
     3     3     4    1
     4     3     2    2
     5     4     5    2
     6     8     2    1
     7     2     1    1
     8     5     7   ar
     9     5     6   ar
    10    11     7    1
    11     1     6    1
    12     7    18   ar
    13     6    12   ar
    14    12    13    1
    15    12    17   ar
    16    18    19    1
    17    18    17   ar
    18    13    14    1
    19    17    16    2
    20    14    22    1
    21    14    15    2
    22    16    15    1
    23    16    20    1
    24    15    21    1
