@<TRIPOS>MOLECULE
1,2
 56 59 0 0 0
SMALL
GASTEIGER

@<TRIPOS>ATOM
      1 N          16.0828   10.4640   15.7423 N.pl3   1  UNL1       -0.2028
      2 N          15.6080   12.0870   13.8964 N.pl3   1  UNL1       -0.2033
      3 P          16.8313   11.4607   14.7357 P.3     1  UNL1        0.1177
      4 C          14.4817   13.7340   12.5961 C.ar    1  UNL1       -0.0387
      5 H          13.5416   13.3027   12.9415 H       1  UNL1        0.0637
      6 C          14.4877   14.8096   11.7323 C.ar    1  UNL1       -0.0600
      7 H          13.5501   15.2267   11.3930 H       1  UNL1        0.0618
      8 C          15.6854   15.3582   11.3005 C.ar    1  UNL1       -0.0616
      9 H          15.6873   16.2007   10.6254 H       1  UNL1        0.0618
     10 C          16.8795   14.8145   11.7443 C.ar    1  UNL1       -0.0600
     11 H          17.8199   15.2335   11.4149 H       1  UNL1        0.0618
     12 C          16.8826   13.7360   12.6052 C.ar    1  UNL1       -0.0387
     13 H          17.8173   13.3084   12.9458 H       1  UNL1        0.0637
     14 C          15.6834   13.1735   13.0505 C.ar    1  UNL1        0.0542
     15 C          17.7702   12.8042   15.5692 C.ar    1  UNL1        0.0126
     16 C          16.9796   13.6948   16.2865 C.ar    1  UNL1       -0.0512
     17 H          15.9067   13.5366   16.3035 H       1  UNL1        0.0625
     18 C          17.5545   14.7579   16.9553 C.ar    1  UNL1       -0.0611
     19 H          16.9364   15.4485   17.5103 H       1  UNL1        0.0618
     20 C          18.9283   14.9375   16.9076 C.ar    1  UNL1       -0.0617
     21 H          19.3835   15.7669   17.4289 H       1  UNL1        0.0618
     22 C          19.7181   14.0585   16.1852 C.ar    1  UNL1       -0.0611
     23 H          20.7879   14.2046   16.1421 H       1  UNL1        0.0618
     24 C          19.1433   12.9937   15.5125 C.ar    1  UNL1       -0.0512
     25 H          19.7621   12.3175   14.9387 H       1  UNL1        0.0625
     26 C          18.0832   10.5467   13.7631 C.ar    1  UNL1        0.0126
     27 C          17.9714   10.4403   12.3827 C.ar    1  UNL1       -0.0512
     28 H          17.1898   10.9832   11.8701 H       1  UNL1        0.0625
     29 C          18.8608    9.6493   11.6771 C.ar    1  UNL1       -0.0611
     30 H          18.7769    9.5719   10.6029 H       1  UNL1        0.0618
     31 C          19.8548    8.9549   12.3477 C.ar    1  UNL1       -0.0617
     32 H          20.5461    8.3348   11.7958 H       1  UNL1        0.0618
     33 C          19.9621    9.0509   13.7265 C.ar    1  UNL1       -0.0611
     34 H          20.7334    8.5041   14.2493 H       1  UNL1        0.0618
     35 C          19.0783    9.8436   14.4352 C.ar    1  UNL1       -0.0512
     36 H          19.1470    9.9148   15.5125 H       1  UNL1        0.0625
     37 C          16.6754    9.4202   16.4608 C.ar    1  UNL1        0.0600
     38 C          16.6608    8.1187   15.9318 C.ar    1  UNL1       -0.0270
     39 C          17.1725    7.0700   16.6768 C.ar    1  UNL1       -0.0541
     40 H          17.1618    6.0726   16.2573 H       1  UNL1        0.0623
     41 C          17.7007    7.2653   17.9459 C.ar    1  UNL1       -0.0498
     42 C          17.6876    8.5488   18.4684 C.ar    1  UNL1       -0.0541
     43 H          18.0795    8.7227   19.4618 H       1  UNL1        0.0623
     44 C          17.1803    9.6236   17.7532 C.ar    1  UNL1       -0.0270
     45 C          16.0771    7.8688   14.5740 C.3     1  UNL1       -0.0379
     46 H          15.8890    6.8072   14.4249 H       1  UNL1        0.0278
     47 H          16.7607    8.2045   13.7930 H       1  UNL1        0.0278
     48 H          15.1396    8.4246   14.4573 H       1  UNL1        0.0278
     49 C          18.2657    6.1121   18.7211 C.3     1  UNL1       -0.0397
     50 H          19.2004    5.7767   18.2713 H       1  UNL1        0.0278
     51 H          17.5753    5.2698   18.7174 H       1  UNL1        0.0278
     52 H          18.4650    6.3970   19.7513 H       1  UNL1        0.0278
     53 C          17.1661   10.9925   18.3635 C.3     1  UNL1       -0.0379
     54 H          17.1923   10.9306   19.4496 H       1  UNL1        0.0278
     55 H          16.2714   11.5335   18.0548 H       1  UNL1        0.0278
     56 H          18.0326   11.5684   18.0350 H       1  UNL1        0.0278
@<TRIPOS>BOND
     1    30    29    1
     2     9     8    1
     3     8     6   ar
     4     8    10   ar
     5     7     6    1
     6    11    10    1
     7    29    31   ar
     8    29    27   ar
     9     6     4   ar
    10    10    12   ar
    11    32    31    1
    12    28    27    1
    13    31    33   ar
    14    27    26   ar
    15     4     5    1
    16     4    14   ar
    17    12    13    1
    18    12    14   ar
    19    14     2    1
    20    33    34    1
    21    33    35   ar
    22    26    35   ar
    23    26     3    1
    24    47    45    1
    25     2     3    1
    26    46    45    1
    27    35    36    1
    28    48    45    1
    29    45    38    1
    30     3    15    1
    31     3     1    1
    32    25    24    1
    33    24    15   ar
    34    24    22   ar
    35    15    16   ar
    36     1    37    1
    37    38    37   ar
    38    38    39   ar
    39    23    22    1
    40    22    20   ar
    41    40    39    1
    42    16    17    1
    43    16    18   ar
    44    37    44   ar
    45    39    41   ar
    46    20    18   ar
    47    20    21    1
    48    18    19    1
    49    44    53    1
    50    44    42   ar
    51    41    42   ar
    52    41    49    1
    53    56    53    1
    54    55    53    1
    55    50    49    1
    56    53    54    1
    57    42    43    1
    58    51    49    1
    59    49    52    1
