@<TRIPOS>MOLECULE
1,2
 56 59 0 0 0
SMALL
GASTEIGER

@<TRIPOS>ATOM
      1 N           4.7906   10.3318   15.7098 N.pl3   1  UNL1       -0.2028
      2 N           5.3343   11.9474   13.9119 N.pl3   1  UNL1       -0.2033
      3 P           4.0622   11.3372   14.6899 P.3     1  UNL1        0.1177
      4 C           6.5076   13.5425   12.5905 C.ar    1  UNL1       -0.0387
      5 H           7.4259   13.0870   12.9533 H       1  UNL1        0.0637
      6 C           6.5361   14.6046   11.7113 C.ar    1  UNL1       -0.0600
      7 H           7.4866   14.9917   11.3723 H       1  UNL1        0.0618
      8 C           5.3562   15.1786   11.2629 C.ar    1  UNL1       -0.0616
      9 H           5.3805   16.0104   10.5751 H       1  UNL1        0.0618
     10 C           4.1456   14.6740   11.7070 C.ar    1  UNL1       -0.0600
     11 H           3.2182   15.1128   11.3662 H       1  UNL1        0.0618
     12 C           4.1090   13.6090   12.5845 C.ar    1  UNL1       -0.0387
     13 H           3.1601   13.2143   12.9270 H       1  UNL1        0.0637
     14 C           5.2896   13.0214   13.0440 C.ar    1  UNL1        0.0542
     15 C           3.8576   13.5442   16.2843 C.ar    1  UNL1       -0.0512
     16 H           4.9301   13.3901   16.3359 H       1  UNL1        0.0625
     17 C           3.2529   14.5903   16.9541 C.ar    1  UNL1       -0.0611
     18 H           3.8471   15.2720   17.5451 H       1  UNL1        0.0618
     19 C           1.8807   14.7642   16.8617 C.ar    1  UNL1       -0.0617
     20 H           1.4022   15.5798   17.3837 H       1  UNL1        0.0618
     21 C           1.1228   13.8966   16.0929 C.ar    1  UNL1       -0.0611
     22 H           0.0542   14.0373   16.0144 H       1  UNL1        0.0618
     23 C           1.7276   12.8497   15.4186 C.ar    1  UNL1       -0.0512
     24 H           1.1326   12.1835   14.8091 H       1  UNL1        0.0625
     25 C           3.0993   12.6649   15.5201 C.ar    1  UNL1        0.0126
     26 C           2.8247   10.4442   13.6808 C.ar    1  UNL1        0.0126
     27 C           2.9320   10.3807   12.2974 C.ar    1  UNL1       -0.0512
     28 H           3.7099   10.9400   11.7978 H       1  UNL1        0.0625
     29 C           2.0396    9.6123   11.5704 C.ar    1  UNL1       -0.0611
     30 H           2.1219    9.5679   10.4943 H       1  UNL1        0.0618
     31 C           1.0452    8.9002   12.2212 C.ar    1  UNL1       -0.0617
     32 H           0.3521    8.2978   11.6523 H       1  UNL1        0.0618
     33 C           0.9377    8.9587   13.6020 C.ar    1  UNL1       -0.0611
     34 H           0.1636    8.4019   14.1100 H       1  UNL1        0.0618
     35 C           1.8242    9.7284   14.3322 C.ar    1  UNL1       -0.0512
     36 H           1.7520    9.7731   15.4106 H       1  UNL1        0.0625
     37 C           4.1639    9.2813   16.3939 C.ar    1  UNL1        0.0600
     38 C           3.6430    9.4657   17.6824 C.ar    1  UNL1       -0.0270
     39 C           3.0968    8.3866   18.3620 C.ar    1  UNL1       -0.0541
     40 H           2.6915    8.5464   19.3523 H       1  UNL1        0.0623
     41 C           3.0601    7.1178   17.8064 C.ar    1  UNL1       -0.0498
     42 C           3.6077    6.9403   16.5427 C.ar    1  UNL1       -0.0541
     43 H           3.6025    5.9534   16.0992 H       1  UNL1        0.0623
     44 C           4.1589    7.9934   15.8325 C.ar    1  UNL1       -0.0270
     45 C           3.6806   10.8193   18.3264 C.3     1  UNL1       -0.0379
     46 H           3.6466   10.7312   19.4106 H       1  UNL1        0.0278
     47 H           2.8271   11.4198   18.0076 H       1  UNL1        0.0278
     48 H           4.5885   11.3500   18.0346 H       1  UNL1        0.0278
     49 C           2.4580    5.9580   18.5426 C.3     1  UNL1       -0.0397
     50 H           2.1323    6.2553   19.5363 H       1  UNL1        0.0278
     51 H           3.1808    5.1485   18.6402 H       1  UNL1        0.0278
     52 H           1.5973    5.5694   17.9987 H       1  UNL1        0.0278
     53 C           4.7613    7.7585   14.4794 C.3     1  UNL1       -0.0379
     54 H           5.0205    6.7087   14.3542 H       1  UNL1        0.0278
     55 H           5.6606    8.3786   14.3462 H       1  UNL1        0.0278
     56 H           4.0549    8.0250   13.6921 H       1  UNL1        0.0278
@<TRIPOS>BOND
     1    30    29    1
     2     9     8    1
     3     8    10   ar
     4     8     6   ar
     5    11    10    1
     6     7     6    1
     7    29    31   ar
     8    29    27   ar
     9    32    31    1
    10    10    12   ar
    11     6     4   ar
    12    28    27    1
    13    31    33   ar
    14    27    26   ar
    15    12    13    1
    16    12    14   ar
    17     4     5    1
    18     4    14   ar
    19    14     2    1
    20    33    34    1
    21    33    35   ar
    22    26    35   ar
    23    26     3    1
    24    56    53    1
    25     2     3    1
    26    35    36    1
    27    55    53    1
    28    54    53    1
    29    53    44    1
    30     3    25    1
    31     3     1    1
    32    24    23    1
    33    23    25   ar
    34    23    21   ar
    35    25    15   ar
    36     1    37    1
    37    44    37   ar
    38    44    42   ar
    39    22    21    1
    40    21    19   ar
    41    43    42    1
    42    15    16    1
    43    15    17   ar
    44    37    38   ar
    45    42    41   ar
    46    19    17   ar
    47    19    20    1
    48    17    18    1
    49    38    45    1
    50    38    39   ar
    51    41    39   ar
    52    41    49    1
    53    52    49    1
    54    47    45    1
    55    48    45    1
    56    45    46    1
    57    39    40    1
    58    49    51    1
    59    49    50    1
