@<TRIPOS>MOLECULE
1,2
 72 73 0 0 0
SMALL
GASTEIGER

@<TRIPOS>ATOM
      1 N           5.2678   17.4464   15.7625 N.pl3   1  UNL1       -0.2192
      2 N           3.6660   17.2517   13.2192 N.pl3   1  UNL1       -0.2371
      3 C           6.0534   19.7507   16.1624 C.3     1  UNL1       -0.0248
      4 H           5.3488   20.4761   16.5658 H       1  UNL1        0.0290
      5 H           6.7429   20.2853   15.5138 H       1  UNL1        0.0290
      6 H           6.6043   19.2981   16.9826 H       1  UNL1        0.0290
      7 C           5.2761   18.7163   15.3817 C.2     1  UNL1        0.0264
      8 C           4.5973   19.2151   14.2637 C.2     1  UNL1       -0.0383
      9 H           4.6713   20.2865   14.1385 H       1  UNL1        0.0610
     10 C           3.9444   18.5492   13.2216 C.3     1  UNL1        0.0968
     11 C           3.5536   19.4221   12.0500 C.3     1  UNL1       -0.0359
     12 H           4.3263   20.1572   11.8392 H       1  UNL1        0.0255
     13 H           2.6448   19.9634   12.3115 H       1  UNL1        0.0255
     14 H           3.3611   18.8333   11.1568 H       1  UNL1        0.0255
     15 C           3.2572   16.6408   11.9997 C.ar    1  UNL1        0.0557
     16 C           4.2403   16.1732   11.1093 C.ar    1  UNL1       -0.0219
     17 C           3.8467   15.5872    9.9148 C.ar    1  UNL1       -0.0565
     18 H           4.5957   15.2502    9.2154 H       1  UNL1        0.0621
     19 C           2.5120   15.4242    9.6007 C.ar    1  UNL1       -0.0611
     20 H           2.2248   14.9600    8.6693 H       1  UNL1        0.0618
     21 C           1.5489   15.8565   10.4900 C.ar    1  UNL1       -0.0565
     22 H           0.5061   15.7198   10.2478 H       1  UNL1        0.0621
     23 C           1.8994   16.4800   11.6791 C.ar    1  UNL1       -0.0219
     24 C           0.8108   16.9523   12.6143 C.3     1  UNL1       -0.0197
     25 H           1.2776   17.5375   13.4176 H       1  UNL1        0.0344
     26 C          -0.2002   17.8573   11.9048 C.3     1  UNL1       -0.0586
     27 H          -0.7730   17.3059   11.1638 H       1  UNL1        0.0235
     28 H           0.3075   18.6783   11.4028 H       1  UNL1        0.0235
     29 H          -0.8996   18.2733   12.6276 H       1  UNL1        0.0235
     30 C           0.1131   15.7403   13.2416 C.3     1  UNL1       -0.0586
     31 H          -0.6780   16.0640   13.9164 H       1  UNL1        0.0235
     32 H           0.8320   15.1348   13.8017 H       1  UNL1        0.0235
     33 H          -0.3340   15.1181   12.4688 H       1  UNL1        0.0235
     34 C           5.7131   16.2923   11.4293 C.3     1  UNL1       -0.0197
     35 H           5.8141   16.5577   12.4875 H       1  UNL1        0.0344
     36 C           6.4336   14.9626   11.1937 C.3     1  UNL1       -0.0586
     37 H           5.9215   14.1580   11.7149 H       1  UNL1        0.0235
     38 H           7.4553   15.0204   11.5594 H       1  UNL1        0.0235
     39 H           6.4740   14.7190   10.1351 H       1  UNL1        0.0235
     40 C           6.3596   17.4019   10.5960 C.3     1  UNL1       -0.0586
     41 H           7.4231   17.4645   10.8164 H       1  UNL1        0.0235
     42 H           5.9060   18.3638   10.8192 H       1  UNL1        0.0235
     43 H           6.2393   17.2019    9.5333 H       1  UNL1        0.0235
     44 C           6.2794   16.9689   16.6339 C.ar    1  UNL1        0.0601
     45 C           7.6043   16.8378   16.1700 C.ar    1  UNL1       -0.0216
     46 C           8.5557   16.2583   16.9970 C.ar    1  UNL1       -0.0565
     47 H           9.5702   16.1544   16.6438 H       1  UNL1        0.0621
     48 C           8.2378   15.8109   18.2636 C.ar    1  UNL1       -0.0611
     49 H           8.9919   15.3541   18.8867 H       1  UNL1        0.0618
     50 C           6.9489   15.9720   18.7299 C.ar    1  UNL1       -0.0565
     51 H           6.7042   15.6455   19.7293 H       1  UNL1        0.0621
     52 C           5.9692   16.5599   17.9429 C.ar    1  UNL1       -0.0216
     53 C           4.5944   16.7765   18.5353 C.3     1  UNL1       -0.0197
     54 H           3.9842   17.3292   17.8052 H       1  UNL1        0.0344
     55 C           4.6742   17.6308   19.8049 C.3     1  UNL1       -0.0586
     56 H           5.2207   17.1176   20.5918 H       1  UNL1        0.0235
     57 H           3.6734   17.8464   20.1744 H       1  UNL1        0.0235
     58 H           5.1775   18.5733   19.5987 H       1  UNL1        0.0235
     59 C           3.9109   15.4354   18.8218 C.3     1  UNL1       -0.0586
     60 H           3.8087   14.8517   17.9023 H       1  UNL1        0.0235
     61 H           2.9197   15.5983   19.2426 H       1  UNL1        0.0235
     62 H           4.4911   14.8559   19.5373 H       1  UNL1        0.0235
     63 C           8.0391   17.3005   14.7968 C.3     1  UNL1       -0.0197
     64 H           7.1726   17.7058   14.2661 H       1  UNL1        0.0344
     65 C           8.5975   16.1337   13.9791 C.3     1  UNL1       -0.0586
     66 H           9.5087   15.7442   14.4268 H       1  UNL1        0.0235
     67 H           8.8339   16.4696   12.9714 H       1  UNL1        0.0235
     68 H           7.8735   15.3269   13.9234 H       1  UNL1        0.0235
     69 C           9.0999   18.4014   14.9009 C.3     1  UNL1       -0.0586
     70 H          10.0272   18.0046   15.3075 H       1  UNL1        0.0235
     71 H           8.7676   19.2084   15.5475 H       1  UNL1        0.0235
     72 H           9.3092   18.8110   13.9148 H       1  UNL1        0.0235
@<TRIPOS>BOND
     1    20    19    1
     2    18    17    1
     3    43    40    1
     4    19    17   ar
     5    19    21   ar
     6    17    16   ar
     7    39    36    1
     8    22    21    1
     9    21    23   ar
    10    40    41    1
    11    40    42    1
    12    40    34    1
    13    16    34    1
    14    16    15   ar
    15    14    11    1
    16    27    26    1
    17    36    34    1
    18    36    38    1
    19    36    37    1
    20    28    26    1
    21    34    35    1
    22    23    15   ar
    23    23    24    1
    24    12    11    1
    25    26    24    1
    26    26    29    1
    27    15     2    1
    28    11    13    1
    29    11    10    1
    30    33    30    1
    31    24    30    1
    32    24    25    1
    33    67    65    1
    34     2    10    1
    35    10     8    1
    36    30    32    1
    37    30    31    1
    38    72    69    1
    39    68    65    1
    40    65    66    1
    41    65    63    1
    42     9     8    1
    43     8     7    2
    44    64    63    1
    45    63    69    1
    46    63    45    1
    47    69    70    1
    48    69    71    1
    49     7     1    1
    50     7     3    1
    51     5     3    1
    52     1    44    1
    53     3     4    1
    54     3     6    1
    55    45    44   ar
    56    45    46   ar
    57    44    52   ar
    58    47    46    1
    59    46    48   ar
    60    54    53    1
    61    60    59    1
    62    52    53    1
    63    52    50   ar
    64    48    50   ar
    65    48    49    1
    66    53    59    1
    67    53    55    1
    68    50    51    1
    69    59    61    1
    70    59    62    1
    71    58    55    1
    72    55    57    1
    73    55    56    1
