@<TRIPOS>MOLECULE
3,4
 72 73 0 0 0
SMALL
GASTEIGER

@<TRIPOS>ATOM
      1 SI          6.5756    4.9821    0.6788 Si      1  UNL1        0.0000
      2 SI         11.7062    2.4241    4.0054 Si      1  UNL1        0.0000
      3 N           7.3489    4.2518    2.0350 N.pl3   1  UNL1        0.0000
      4 N          10.1382    3.1248    3.8662 N.pl3   1  UNL1        0.0000
      5 C           6.7846    3.2960    2.8663 C.ar    1  UNL1        0.0000
      6 C           5.7522    2.4436    2.4477 C.ar    1  UNL1        0.0000
      7 C           5.2431    1.4669    3.2785 C.ar    1  UNL1        0.0000
      8 C           5.7618    1.2912    4.5488 C.ar    1  UNL1        0.0000
      9 C           6.7559    2.1435    5.0193 C.ar    1  UNL1        0.0000
     10 C           7.2493    3.1614    4.2020 C.ar    1  UNL1        0.0000
     11 C           8.1667    4.1621    4.8293 C.ar    1  UNL1        0.0000
     12 C           9.5799    4.0448    4.7386 C.ar    1  UNL1        0.0000
     13 C          10.3548    4.8835    5.5529 C.ar    1  UNL1        0.0000
     14 C           9.7740    5.8357    6.3655 C.ar    1  UNL1        0.0000
     15 C           8.4000    5.9930    6.3845 C.ar    1  UNL1        0.0000
     16 C           7.5922    5.1502    5.6284 C.ar    1  UNL1        0.0000
     17 C           6.1004    5.3071    5.7154 C.3     1  UNL1        0.0000
     18 C           7.2652    1.9679    6.4212 C.3     1  UNL1        0.0000
     19 C           7.9360    6.0775   -0.1091 C.3     1  UNL1        0.0000
     20 C           5.9795    3.8489   -0.7684 C.3     1  UNL1        0.0000
     21 C           5.0839    6.1081    1.2073 C.3     1  UNL1        0.0000
     22 C           4.5309    6.8537   -0.0072 C.3     1  UNL1        0.0000
     23 C           3.9601    5.2755    1.8219 C.3     1  UNL1        0.0000
     24 C           5.5412    7.1350    2.2445 C.3     1  UNL1        0.0000
     25 C          11.9480    1.4739    2.3589 C.3     1  UNL1        0.0000
     26 C          13.2569    3.5737    4.0881 C.3     1  UNL1        0.0000
     27 C          11.7942    1.1892    5.5004 C.3     1  UNL1        0.0000
     28 C          10.6752    0.1530    5.3851 C.3     1  UNL1        0.0000
     29 C          11.6282    1.9346    6.8237 C.3     1  UNL1        0.0000
     30 C          13.1372    0.4597    5.5151 C.3     1  UNL1        0.0000
     31 H           5.3604    2.5640    1.4518 H       1  UNL1        0.0000
     32 H           4.4378    0.8337    2.9316 H       1  UNL1        0.0000
     33 H           5.3814    0.5090    5.1891 H       1  UNL1        0.0000
     34 H          11.4261    4.7779    5.5247 H       1  UNL1        0.0000
     35 H          10.3994    6.4672    6.9815 H       1  UNL1        0.0000
     36 H           7.9471    6.7545    7.0022 H       1  UNL1        0.0000
     37 H           5.8391    6.3530    5.8645 H       1  UNL1        0.0000
     38 H           5.7074    4.7426    6.5614 H       1  UNL1        0.0000
     39 H           5.6129    4.9408    4.8163 H       1  UNL1        0.0000
     40 H           8.3098    2.2580    6.4964 H       1  UNL1        0.0000
     41 H           6.6981    2.5906    7.1131 H       1  UNL1        0.0000
     42 H           7.1573    0.9322    6.7370 H       1  UNL1        0.0000
     43 H           8.0072    7.0530    0.3579 H       1  UNL1        0.0000
     44 H           8.9061    5.5846   -0.0301 H       1  UNL1        0.0000
     45 H           7.7393    6.2391   -1.1637 H       1  UNL1        0.0000
     46 H           6.6802    3.0328   -0.9259 H       1  UNL1        0.0000
     47 H           5.9227    4.4080   -1.6976 H       1  UNL1        0.0000
     48 H           4.9984    3.4153   -0.5980 H       1  UNL1        0.0000
     49 H           5.3043    7.4590   -0.4733 H       1  UNL1        0.0000
     50 H           3.7144    7.5127    0.2890 H       1  UNL1        0.0000
     51 H           4.1504    6.1563   -0.7485 H       1  UNL1        0.0000
     52 H           3.1359    5.9168    2.1364 H       1  UNL1        0.0000
     53 H           3.5704    4.5579    1.1042 H       1  UNL1        0.0000
     54 H           4.3175    4.7273    2.6900 H       1  UNL1        0.0000
     55 H           5.9945    6.6387    3.0986 H       1  UNL1        0.0000
     56 H           6.2684    7.8208    1.8152 H       1  UNL1        0.0000
     57 H           4.6944    7.7237    2.5987 H       1  UNL1        0.0000
     58 H          13.0005    1.2967    2.1654 H       1  UNL1        0.0000
     59 H          11.4555    0.5078    2.3601 H       1  UNL1        0.0000
     60 H          11.5582    2.0589    1.5227 H       1  UNL1        0.0000
     61 H          13.1351    4.4241    3.4222 H       1  UNL1        0.0000
     62 H          13.4540    3.9572    5.0846 H       1  UNL1        0.0000
     63 H          14.1476    3.0404    3.7700 H       1  UNL1        0.0000
     64 H          10.6518   -0.4861    6.2683 H       1  UNL1        0.0000
     65 H          10.8286   -0.4817    4.5156 H       1  UNL1        0.0000
     66 H           9.7100    0.6423    5.2859 H       1  UNL1        0.0000
     67 H          10.6868    2.4778    6.8439 H       1  UNL1        0.0000
     68 H          11.6411    1.2372    7.6620 H       1  UNL1        0.0000
     69 H          12.4340    2.6497    6.9698 H       1  UNL1        0.0000
     70 H          13.9569    1.1615    5.6429 H       1  UNL1        0.0000
     71 H          13.2923   -0.0809    4.5847 H       1  UNL1        0.0000
     72 H          13.1729   -0.2569    6.3360 H       1  UNL1        0.0000
@<TRIPOS>BOND
     1    47    20    1
     2    45    19    1
     3    46    20    1
     4    20    48    1
     5    20     1    1
     6    51    22    1
     7    49    22    1
     8    19    44    1
     9    19    43    1
    10    19     1    1
    11    22    50    1
    12    22    21    1
    13     1    21    1
    14     1     3    1
    15    53    23    1
    16    21    23    1
    17    21    24    1
    18    31     6    1
    19    60    25    1
    20    56    24    1
    21    23    52    1
    22    23    54    1
    23     3     5    1
    24    58    25    1
    25    24    57    1
    26    24    55    1
    27    25    59    1
    28    25     2    1
    29     6     5   ar
    30     6     7   ar
    31     5    10   ar
    32    32     7    1
    33     7     8   ar
    34    61    26    1
    35    63    26    1
    36     4     2    1
    37     4    12    1
    38     2    26    1
    39     2    27    1
    40    26    62    1
    41    10    11    1
    42    10     9   ar
    43    65    28    1
    44     8     9   ar
    45     8    33    1
    46    71    30    1
    47    12    11   ar
    48    12    13   ar
    49    39    17    1
    50    11    16   ar
    51     9    18    1
    52    66    28    1
    53    28    27    1
    54    28    64    1
    55    27    30    1
    56    27    29    1
    57    30    70    1
    58    30    72    1
    59    34    13    1
    60    13    14   ar
    61    16    17    1
    62    16    15   ar
    63    17    37    1
    64    17    38    1
    65    14    15   ar
    66    14    35    1
    67    15    36    1
    68    18    40    1
    69    18    42    1
    70    18    41    1
    71    29    67    1
    72    29    69    1
    73    29    68    1
