@<TRIPOS>MOLECULE
2,3
 53 55 0 0 0
SMALL
GASTEIGER

@<TRIPOS>ATOM
      1 SI          8.1661   -1.1830    1.4183 Si      1  UNL1        0.0000
      2 N           9.5225   -0.5571    2.2707 N.pl3   1  UNL1        0.0000
      3 N          11.1676    0.9363    3.7219 N.pl3   1  UNL1        0.0000
      4 C           7.3002    0.4955    1.5775 C.2     1  UNL1        0.0000
      5 C           6.7665    0.9726    2.8142 C.3     1  UNL1        0.0000
      6 C           5.9355    0.1431    3.7556 C.3     1  UNL1        0.0000
      7 H           4.9138    0.0792    3.3704 H       1  UNL1        0.0000
      8 H           6.3182   -0.8693    3.8350 H       1  UNL1        0.0000
      9 H           5.8760    0.5865    4.7482 H       1  UNL1        0.0000
     10 C           6.8094    2.3883    2.8035 C.2     1  UNL1        0.0000
     11 C           6.1710    3.3379    3.7778 C.3     1  UNL1        0.0000
     12 H           5.3451    3.8660    3.2956 H       1  UNL1        0.0000
     13 H           5.7711    2.8157    4.6438 H       1  UNL1        0.0000
     14 H           6.8862    4.0884    4.1166 H       1  UNL1        0.0000
     15 C           7.3936    2.8024    1.5769 C.2     1  UNL1        0.0000
     16 C           7.4171    4.2343    1.1206 C.3     1  UNL1        0.0000
     17 H           6.3970    4.6210    1.0670 H       1  UNL1        0.0000
     18 H           7.9671    4.8606    1.8240 H       1  UNL1        0.0000
     19 H           7.8629    4.3368    0.1342 H       1  UNL1        0.0000
     20 C           7.7179    1.6416    0.8324 C.2     1  UNL1        0.0000
     21 C           8.0323    1.6127   -0.6398 C.3     1  UNL1        0.0000
     22 H           7.0986    1.5370   -1.2039 H       1  UNL1        0.0000
     23 H           8.5324    2.5207   -0.9726 H       1  UNL1        0.0000
     24 H           8.6393    0.7511   -0.9011 H       1  UNL1        0.0000
     25 C           8.5127   -1.7878   -0.3743 C.3     1  UNL1        0.0000
     26 H           8.6328   -2.8661   -0.3855 H       1  UNL1        0.0000
     27 H           7.6984   -1.5481   -1.0492 H       1  UNL1        0.0000
     28 H           9.4262   -1.3631   -0.7797 H       1  UNL1        0.0000
     29 C           7.2662   -2.6731    2.2350 C.3     1  UNL1        0.0000
     30 H           7.6136   -3.6019    1.7947 H       1  UNL1        0.0000
     31 H           7.4621   -2.7356    3.3012 H       1  UNL1        0.0000
     32 H           6.1924   -2.6300    2.0892 H       1  UNL1        0.0000
     33 C          10.6772   -1.1739    2.6867 C.ar    1  UNL1        0.0000
     34 C          11.5782   -0.3687    3.4388 C.ar    1  UNL1        0.0000
     35 C          12.7526   -0.9416    3.9201 C.ar    1  UNL1        0.0000
     36 H          13.4257   -0.3460    4.5219 H       1  UNL1        0.0000
     37 C          13.0619   -2.2652    3.6464 C.ar    1  UNL1        0.0000
     38 H          13.9809   -2.6854    4.0280 H       1  UNL1        0.0000
     39 C          12.1973   -3.0413    2.8971 C.ar    1  UNL1        0.0000
     40 H          12.4386   -4.0718    2.6806 H       1  UNL1        0.0000
     41 C          11.0115   -2.4999    2.4274 C.ar    1  UNL1        0.0000
     42 H          10.3234   -3.0965    1.8464 H       1  UNL1        0.0000
     43 C          12.1692    1.8453    4.0705 C.ar    1  UNL1        0.0000
     44 C          13.3299    1.9955    3.2895 C.ar    1  UNL1        0.0000
     45 H          13.4816    1.3355    2.4432 H       1  UNL1        0.0000
     46 C          14.2814    2.9451    3.6002 C.ar    1  UNL1        0.0000
     47 H          15.1607    3.0415    2.9784 H       1  UNL1        0.0000
     48 C          14.1134    3.7734    4.6979 C.ar    1  UNL1        0.0000
     49 H          14.8555    4.5201    4.9362 H       1  UNL1        0.0000
     50 C          12.9893    3.6232    5.4932 C.ar    1  UNL1        0.0000
     51 H          12.8578    4.2513    6.3622 H       1  UNL1        0.0000
     52 C          12.0352    2.6706    5.1958 C.ar    1  UNL1        0.0000
     53 H          11.1730    2.5654    5.8415 H       1  UNL1        0.0000
@<TRIPOS>BOND
     1    22    21    1
     2    27    25    1
     3    23    21    1
     4    24    21    1
     5    28    25    1
     6    21    20    1
     7    26    25    1
     8    25     1    1
     9    19    16    1
    10    20    15    1
    11    20     4    2
    12    17    16    1
    13    16    15    1
    14    16    18    1
    15     1     4    1
    16     1    29    1
    17     1     2    1
    18    15    10    2
    19     4     5    1
    20    30    29    1
    21    42    41    1
    22    32    29    1
    23    29    31    1
    24     2    33    1
    25    41    33   ar
    26    41    39   ar
    27    45    44    1
    28    40    39    1
    29    33    34   ar
    30    10     5    1
    31    10    11    1
    32     5     6    1
    33    39    37   ar
    34    47    46    1
    35    44    46   ar
    36    44    43   ar
    37    12    11    1
    38     7     6    1
    39    34     3    1
    40    34    35   ar
    41    46    48   ar
    42    37    35   ar
    43    37    38    1
    44     3    43    1
    45     6     8    1
    46     6     9    1
    47    11    14    1
    48    11    13    1
    49    35    36    1
    50    43    52   ar
    51    48    49    1
    52    48    50   ar
    53    52    50   ar
    54    52    53    1
    55    50    51    1
