@<TRIPOS>MOLECULE
2,3
 40 40 0 0 0
SMALL
GASTEIGER

@<TRIPOS>ATOM
      1 SI          4.1373    3.2562    5.2077 Si      1  UNL1        0.0000
      2 N           2.9566    3.5334    3.9665 N.pl3   1  UNL1        0.0000
      3 N           2.8201    4.3722    1.4585 N.3     1  UNL1        0.0000
      4 C           1.6286    3.7164    4.0498 C.ar    1  UNL1        0.0000
      5 C           0.8819    3.4748    5.2254 C.ar    1  UNL1        0.0000
      6 H           1.4161    3.1097    6.0880 H       1  UNL1        0.0000
      7 C          -0.4758    3.6548    5.2673 C.ar    1  UNL1        0.0000
      8 H          -1.0167    3.4278    6.1742 H       1  UNL1        0.0000
      9 C          -1.1725    4.1286    4.1505 C.ar    1  UNL1        0.0000
     10 H          -2.2417    4.2614    4.1966 H       1  UNL1        0.0000
     11 C          -0.4810    4.4295    3.0065 C.ar    1  UNL1        0.0000
     12 H          -1.0049    4.8072    2.1398 H       1  UNL1        0.0000
     13 C           0.9106    4.2337    2.9131 C.ar    1  UNL1        0.0000
     14 C           1.5883    4.6635    1.7305 C.3     1  UNL1        0.0000
     15 H           1.0079    5.3123    1.0684 H       1  UNL1        0.0000
     16 C           4.5596    4.9402    6.0135 C.3     1  UNL1        0.0000
     17 H           5.4031    4.8421    6.6866 H       1  UNL1        0.0000
     18 H           3.7219    5.3190    6.5892 H       1  UNL1        0.0000
     19 H           4.8116    5.6899    5.2703 H       1  UNL1        0.0000
     20 C           3.8551    1.9550    6.5823 C.3     1  UNL1        0.0000
     21 H           4.8065    1.6078    6.9744 H       1  UNL1        0.0000
     22 H           3.3252    1.0895    6.1941 H       1  UNL1        0.0000
     23 H           3.2901    2.3565    7.4188 H       1  UNL1        0.0000
     24 C           5.5781    2.6885    4.0652 C.3     1  UNL1        0.0000
     25 H           6.5413    2.7681    4.5618 H       1  UNL1        0.0000
     26 H           5.6270    3.3044    3.1574 H       1  UNL1        0.0000
     27 H           5.4520    1.6381    3.7845 H       1  UNL1        0.0000
     28 C           3.4848    4.8921    0.2609 C.3     1  UNL1        0.0000
     29 C           3.0194    6.3034   -0.1240 C.3     1  UNL1        0.0000
     30 H           2.0250    6.2931   -0.5627 H       1  UNL1        0.0000
     31 H           3.7003    6.7187   -0.8619 H       1  UNL1        0.0000
     32 H           3.0163    6.9533    0.7489 H       1  UNL1        0.0000
     33 C           3.2168    3.9097   -0.8900 C.3     1  UNL1        0.0000
     34 H           2.1447    3.8154   -1.0640 H       1  UNL1        0.0000
     35 H           3.6139    2.9190   -0.6502 H       1  UNL1        0.0000
     36 H           3.6929    4.2664   -1.8005 H       1  UNL1        0.0000
     37 C           4.9841    4.9204    0.5968 C.3     1  UNL1        0.0000
     38 H           5.1556    5.5420    1.4767 H       1  UNL1        0.0000
     39 H           5.5478    5.3346   -0.2359 H       1  UNL1        0.0000
     40 H           5.3476    3.9060    0.7859 H       1  UNL1        0.0000
@<TRIPOS>BOND
     1    36    33    1
     2    34    33    1
     3    33    35    1
     4    33    28    1
     5    31    29    1
     6    30    29    1
     7    39    37    1
     8    29    28    1
     9    29    32    1
    10    28    37    1
    11    28     3    1
    12    37    40    1
    13    37    38    1
    14    15    14    1
    15     3    14    1
    16    14    13    1
    17    12    11    1
    18    13    11   ar
    19    13     4   ar
    20    11     9   ar
    21    26    24    1
    22    27    24    1
    23     2     4    1
    24     2     1    1
    25     4     5   ar
    26    24    25    1
    27    24     1    1
    28     9    10    1
    29     9     7   ar
    30     1    16    1
    31     1    20    1
    32     5     7   ar
    33     5     6    1
    34     7     8    1
    35    19    16    1
    36    16    18    1
    37    16    17    1
    38    22    20    1
    39    20    21    1
    40    20    23    1
