@<TRIPOS>MOLECULE
3,5
 43 44 0 0 0
SMALL
GASTEIGER

@<TRIPOS>ATOM
      1 SI         -1.1688   11.8328    2.0313 Si      1  UNL1        0.0000
      2 N          -1.3338   13.0566    4.6212 N.3     1  UNL1        0.0000
      3 N          -1.5951   14.3508    4.3870 N.pl3   1  UNL1        0.0000
      4 N           0.8773   12.8555    3.7584 N.3     1  UNL1        0.0000
      5 N           1.1137   14.0890    3.2882 N.pl3   1  UNL1        0.0000
      6 C          -2.0628   11.1675    6.1074 C.3     1  UNL1        0.0000
      7 H          -2.7700   11.0533    6.9242 H       1  UNL1        0.0000
      8 H          -1.0714   10.9024    6.4766 H       1  UNL1        0.0000
      9 H          -2.3354   10.4701    5.3151 H       1  UNL1        0.0000
     10 C          -2.1042   12.5726    5.6264 C.3     1  UNL1        0.0000
     11 C          -2.8811   13.6237    6.0586 C.2     1  UNL1        0.0000
     12 H          -3.6060   13.6091    6.8461 H       1  UNL1        0.0000
     13 C          -2.5255   14.7191    5.2595 C.2     1  UNL1        0.0000
     14 C          -3.0825   16.0922    5.3466 C.3     1  UNL1        0.0000
     15 H          -2.2843   16.8267    5.4455 H       1  UNL1        0.0000
     16 H          -3.7435   16.1654    6.2067 H       1  UNL1        0.0000
     17 H          -3.6481   16.3322    4.4473 H       1  UNL1        0.0000
     18 C          -0.4363   12.2764    3.8137 C.3     1  UNL1        0.0000
     19 H          -0.3176   11.3279    4.3405 H       1  UNL1        0.0000
     20 C           2.1052   10.8142    4.5560 C.3     1  UNL1        0.0000
     21 H           1.6665   10.1037    3.8551 H       1  UNL1        0.0000
     22 H           1.5881   10.7228    5.5119 H       1  UNL1        0.0000
     23 H           3.1473   10.5476    4.7079 H       1  UNL1        0.0000
     24 C           2.0338   12.2033    4.0335 C.3     1  UNL1        0.0000
     25 C           3.0525   13.0790    3.7328 C.2     1  UNL1        0.0000
     26 H           4.1040   12.9043    3.8324 H       1  UNL1        0.0000
     27 C           2.4315   14.2492    3.2745 C.2     1  UNL1        0.0000
     28 C           3.1093   15.4927    2.8300 C.3     1  UNL1        0.0000
     29 H           2.9008   15.6852    1.7785 H       1  UNL1        0.0000
     30 H           4.1837   15.3923    2.9636 H       1  UNL1        0.0000
     31 H           2.7575   16.3500    3.4026 H       1  UNL1        0.0000
     32 C           0.1288   12.2890    0.7188 C.3     1  UNL1        0.0000
     33 H          -0.3111   12.2545   -0.2730 H       1  UNL1        0.0000
     34 H           0.9610   11.5884    0.7320 H       1  UNL1        0.0000
     35 H           0.5317   13.2887    0.8586 H       1  UNL1        0.0000
     36 C          -1.2841    9.9228    2.0820 C.3     1  UNL1        0.0000
     37 H          -1.6852    9.5480    1.1464 H       1  UNL1        0.0000
     38 H          -1.9377    9.5684    2.8738 H       1  UNL1        0.0000
     39 H          -0.3138    9.4552    2.2226 H       1  UNL1        0.0000
     40 C          -2.9411   12.5164    1.9473 C.3     1  UNL1        0.0000
     41 H          -3.3073   12.4922    0.9259 H       1  UNL1        0.0000
     42 H          -3.0076   13.5460    2.2890 H       1  UNL1        0.0000
     43 H          -3.6200   11.9193    2.5525 H       1  UNL1        0.0000
@<TRIPOS>BOND
     1    33    32    1
     2    32    34    1
     3    32    35    1
     4    32     1    1
     5    41    40    1
     6    37    36    1
     7    29    28    1
     8    40     1    1
     9    40    42    1
    10    40    43    1
    11     1    36    1
    12     1    18    1
    13    36    39    1
    14    36    38    1
    15    28    30    1
    16    28    27    1
    17    28    31    1
    18    27     5    1
    19    27    25    2
    20     5     4    1
    21    25    26    1
    22    25    24    1
    23     4    18    1
    24     4    24    1
    25    18    19    1
    26    18     2    1
    27    21    20    1
    28    24    20    1
    29     3     2    1
    30     3    13    1
    31    17    14    1
    32    20    23    1
    33    20    22    1
    34     2    10    1
    35    13    14    1
    36    13    11    2
    37     9     6    1
    38    14    15    1
    39    14    16    1
    40    10    11    1
    41    10     6    1
    42    11    12    1
    43     6     8    1
    44     6     7    1
