@<TRIPOS>MOLECULE
1,2
 76 78 0 0 0
SMALL
GASTEIGER

@<TRIPOS>ATOM
      1 N           1.2232    2.4595    5.6977 N.pl3   1  UNL1       -0.2454
      2 N           0.2827    1.0118    8.4981 N.pl3   1  UNL1       -0.2454
      3 C           1.9374    1.1886    5.5252 C.3     1  UNL1        0.0567
      4 C           2.9540    1.0899    6.6368 C.ar    1  UNL1       -0.0237
      5 C           4.2336    1.5919    6.4139 C.ar    1  UNL1       -0.0567
      6 C           5.1997    1.5769    7.4029 C.ar    1  UNL1       -0.0614
      7 C           4.8939    1.0469    8.6452 C.ar    1  UNL1       -0.0614
      8 C           3.6260    0.5444    8.8805 C.ar    1  UNL1       -0.0567
      9 C           2.6391    0.5598    7.8972 C.ar    1  UNL1       -0.0237
     10 C           1.2854   -0.0230    8.2204 C.3     1  UNL1        0.0567
     11 C           1.0554    3.1873    4.5106 C.ar    1  UNL1        0.0549
     12 C           1.6804    4.4482    4.3827 C.ar    1  UNL1       -0.0220
     13 C           1.5653    5.1653    3.2041 C.ar    1  UNL1       -0.0565
     14 C           0.8731    4.6527    2.1232 C.ar    1  UNL1       -0.0611
     15 C           0.2448    3.4281    2.2432 C.ar    1  UNL1       -0.0565
     16 C           0.3026    2.6981    3.4200 C.ar    1  UNL1       -0.0220
     17 C          -0.7655    0.4626    9.2762 C.ar    1  UNL1        0.0549
     18 C          -1.9504   -0.0169    8.6831 C.ar    1  UNL1       -0.0220
     19 C          -2.9250   -0.6057    9.4749 C.ar    1  UNL1       -0.0565
     20 C          -2.7624   -0.7262   10.8411 C.ar    1  UNL1       -0.0611
     21 C          -1.6152   -0.2351   11.4327 C.ar    1  UNL1       -0.0565
     22 C          -0.6166    0.3538   10.6739 C.ar    1  UNL1       -0.0220
     23 C          -0.5220    1.4349    3.5426 C.3     1  UNL1       -0.0197
     24 C          -1.9934    1.7197    3.2260 C.3     1  UNL1       -0.0586
     25 C           0.0081    0.3196    2.6392 C.3     1  UNL1       -0.0586
     26 C           2.4910    5.0094    5.5294 C.3     1  UNL1       -0.0197
     27 C           3.9103    5.3794    5.0937 C.3     1  UNL1       -0.0586
     28 C           1.7809    6.2184    6.1446 C.3     1  UNL1       -0.0586
     29 C          -2.1707    0.0899    7.1903 C.3     1  UNL1       -0.0197
     30 C          -3.5338    0.7024    6.8620 C.3     1  UNL1       -0.0586
     31 C          -2.0301   -1.2815    6.5235 C.3     1  UNL1       -0.0586
     32 C           0.6128    0.9101   11.3582 C.3     1  UNL1       -0.0197
     33 C           1.4169   -0.1948   12.0479 C.3     1  UNL1       -0.0586
     34 C           0.2279    1.9852   12.3778 C.3     1  UNL1       -0.0586
     35 H           2.4630    1.1911    4.5591 H       1  UNL1        0.0531
     36 H           1.2805    0.3010    5.5432 H       1  UNL1        0.0531
     37 H           4.4725    1.9923    5.4388 H       1  UNL1        0.0621
     38 H           6.1876    1.9652    7.2032 H       1  UNL1        0.0618
     39 H           5.6415    1.0160    9.4245 H       1  UNL1        0.0618
     40 H           3.3994    0.1163    9.8464 H       1  UNL1        0.0621
     41 H           0.9614   -0.6788    7.3859 H       1  UNL1        0.0531
     42 H           1.3896   -0.6801    9.0991 H       1  UNL1        0.0531
     43 H           2.0420    6.1312    3.1151 H       1  UNL1        0.0621
     44 H           0.8140    5.2084    1.1987 H       1  UNL1        0.0618
     45 H          -0.3139    3.0415    1.4029 H       1  UNL1        0.0621
     46 H          -3.8247   -0.9904    9.0175 H       1  UNL1        0.0621
     47 H          -3.5272   -1.1969   11.4418 H       1  UNL1        0.0618
     48 H          -1.4958   -0.3197   12.5035 H       1  UNL1        0.0621
     49 H          -0.4801    1.1032    4.5862 H       1  UNL1        0.0344
     50 H          -2.5956    0.8337    3.4210 H       1  UNL1        0.0235
     51 H          -2.1285    1.9949    2.1832 H       1  UNL1        0.0235
     52 H          -2.3585    2.5349    3.8473 H       1  UNL1        0.0235
     53 H          -0.5852   -0.5847    2.7636 H       1  UNL1        0.0235
     54 H           1.0435    0.0876    2.8775 H       1  UNL1        0.0235
     55 H          -0.0412    0.6207    1.5950 H       1  UNL1        0.0235
     56 H           2.5608    4.2171    6.2898 H       1  UNL1        0.0344
     57 H           4.5156    5.6462    5.9591 H       1  UNL1        0.0235
     58 H           3.9039    6.2256    4.4109 H       1  UNL1        0.0235
     59 H           4.3826    4.5392    4.5905 H       1  UNL1        0.0235
     60 H           2.3762    6.6466    6.9510 H       1  UNL1        0.0235
     61 H           0.8092    5.9176    6.5411 H       1  UNL1        0.0235
     62 H           1.6229    6.9905    5.3943 H       1  UNL1        0.0235
     63 H          -1.3897    0.7653    6.7846 H       1  UNL1        0.0344
     64 H          -3.5991    0.9213    5.7984 H       1  UNL1        0.0235
     65 H          -3.6718    1.6277    7.4167 H       1  UNL1        0.0235
     66 H          -4.3416    0.0194    7.1149 H       1  UNL1        0.0235
     67 H          -2.1361   -1.1914    5.4441 H       1  UNL1        0.0235
     68 H          -2.7962   -1.9617    6.8907 H       1  UNL1        0.0235
     69 H          -1.0578   -1.7181    6.7415 H       1  UNL1        0.0235
     70 H           1.2329    1.3773   10.5823 H       1  UNL1        0.0344
     71 H           2.3405    0.2070   12.4633 H       1  UNL1        0.0235
     72 H           1.6678   -0.9896   11.3480 H       1  UNL1        0.0235
     73 H           0.8430   -0.6351   12.8602 H       1  UNL1        0.0235
     74 H          -0.3368    2.7805   11.8964 H       1  UNL1        0.0235
     75 H           1.1209    2.4103   12.8350 H       1  UNL1        0.0235
     76 H          -0.3871    1.5659   13.1705 H       1  UNL1        0.0235
@<TRIPOS>BOND
     1    44    14    1
     2    45    15    1
     3    55    25    1
     4    14    15   ar
     5    14    13   ar
     6    51    24    1
     7    15    16   ar
     8    25    53    1
     9    25    54    1
    10    25    23    1
    11    43    13    1
    12    13    12   ar
    13    24    50    1
    14    24    23    1
    15    24    52    1
    16    16    23    1
    17    16    11   ar
    18    23    49    1
    19    12    11   ar
    20    12    26    1
    21    58    27    1
    22    11     1    1
    23    35     3    1
    24    59    27    1
    25    27    26    1
    26    27    57    1
    27    62    28    1
    28    37     5    1
    29    67    31    1
    30     3    36    1
    31     3     1    1
    32     3     4    1
    33    26    28    1
    34    26    56    1
    35    64    30    1
    36    28    61    1
    37    28    60    1
    38     5     4   ar
    39     5     6   ar
    40    31    69    1
    41    31    68    1
    42    31    29    1
    43     4     9   ar
    44    63    29    1
    45    30    66    1
    46    30    29    1
    47    30    65    1
    48    29    18    1
    49    38     6    1
    50    41    10    1
    51     6     7   ar
    52     9    10    1
    53     9     8   ar
    54    10     2    1
    55    10    42    1
    56     2    17    1
    57     7     8   ar
    58     7    39    1
    59    18    17   ar
    60    18    19   ar
    61     8    40    1
    62    46    19    1
    63    17    22   ar
    64    19    20   ar
    65    70    32    1
    66    22    32    1
    67    22    21   ar
    68    20    21   ar
    69    20    47    1
    70    72    33    1
    71    32    33    1
    72    32    34    1
    73    21    48    1
    74    74    34    1
    75    33    71    1
    76    33    73    1
    77    34    75    1
    78    34    76    1
