@<TRIPOS>MOLECULE
3,4
 49 49 0 0 0
SMALL
GASTEIGER

@<TRIPOS>ATOM
      1 SI          3.0291    8.5947    8.6043 Si      1  UNL1        0.0000
      2 SI          8.1149   10.1092   12.1792 Si      1  UNL1        0.0000
      3 N           7.0457    9.8017   10.8725 N.3     1  UNL1        0.0000
      4 N           4.6380    8.9034    9.1169 N.3     1  UNL1        0.0000
      5 N           8.6461    7.2924    9.6149 N.ar    1  UNL1        0.0000
      6 C           7.1079    8.8111    8.5693 C.3     1  UNL1        0.0000
      7 C           7.3734    7.5040    9.2902 C.ar    1  UNL1        0.0000
      8 C           6.3861    6.5549    9.5616 C.ar    1  UNL1        0.0000
      9 H           5.3614    6.7168    9.2563 H       1  UNL1        0.0000
     10 C           6.7519    5.3696   10.1845 C.ar    1  UNL1        0.0000
     11 H           6.0095    4.6104   10.3890 H       1  UNL1        0.0000
     12 C           8.0782    5.1662   10.5289 C.ar    1  UNL1        0.0000
     13 H           8.4007    4.2580   11.0137 H       1  UNL1        0.0000
     14 C           8.9834    6.1679   10.2160 C.ar    1  UNL1        0.0000
     15 H          10.0360    6.0619   10.4465 H       1  UNL1        0.0000
     16 C           8.0176    8.8594    7.3298 C.3     1  UNL1        0.0000
     17 H           7.9454    9.8318    6.8470 H       1  UNL1        0.0000
     18 H           7.7260    8.0935    6.6132 H       1  UNL1        0.0000
     19 H           9.0487    8.6829    7.6237 H       1  UNL1        0.0000
     20 C           5.6507    8.9571    8.0862 C.3     1  UNL1        0.0000
     21 H           5.5866    9.9175    7.5396 H       1  UNL1        0.0000
     22 H           5.4779    8.1692    7.3327 H       1  UNL1        0.0000
     23 C           7.5182    9.9696    9.5187 C.3     1  UNL1        0.0000
     24 H           8.6137   10.0215    9.4982 H       1  UNL1        0.0000
     25 H           7.1373   10.9177    9.0870 H       1  UNL1        0.0000
     26 C           2.7744    6.7553    8.0688 C.3     1  UNL1        0.0000
     27 H           3.5230    6.4389    7.3462 H       1  UNL1        0.0000
     28 H           1.8044    6.6216    7.6007 H       1  UNL1        0.0000
     29 H           2.8207    6.0718    8.9133 H       1  UNL1        0.0000
     30 C           2.5323    9.6303    7.0621 C.3     1  UNL1        0.0000
     31 H           3.0756    9.2965    6.1830 H       1  UNL1        0.0000
     32 H           2.7446   10.6870    7.1953 H       1  UNL1        0.0000
     33 H           1.4735    9.5325    6.8453 H       1  UNL1        0.0000
     34 C           1.8147    8.9515   10.0280 C.3     1  UNL1        0.0000
     35 H           2.1329    8.4568   10.9421 H       1  UNL1        0.0000
     36 H           0.8223    8.5918    9.7783 H       1  UNL1        0.0000
     37 H           1.7422   10.0143   10.2389 H       1  UNL1        0.0000
     38 C           7.0836   10.4589   13.7495 C.3     1  UNL1        0.0000
     39 H           6.8147   11.5070   13.8274 H       1  UNL1        0.0000
     40 H           7.6428   10.1982   14.6421 H       1  UNL1        0.0000
     41 H           6.1617    9.8815   13.7437 H       1  UNL1        0.0000
     42 C           9.3376    8.6726   12.5621 C.3     1  UNL1        0.0000
     43 H           9.9772    8.4734   11.7081 H       1  UNL1        0.0000
     44 H           8.8224    7.7476   12.8066 H       1  UNL1        0.0000
     45 H           9.9789    8.9241   13.4014 H       1  UNL1        0.0000
     46 C           9.2370   11.6372   11.8544 C.3     1  UNL1        0.0000
     47 H           9.9293   11.4460   11.0400 H       1  UNL1        0.0000
     48 H           9.8294   11.8770   12.7313 H       1  UNL1        0.0000
     49 H           8.6625   12.5219   11.5957 H       1  UNL1        0.0000
@<TRIPOS>BOND
     1    31    30    1
     2    18    16    1
     3    33    30    1
     4    17    16    1
     5    30    32    1
     6    30     1    1
     7    16    19    1
     8    16     6    1
     9    22    20    1
    10    27    26    1
    11    21    20    1
    12    28    26    1
    13    26     1    1
    14    26    29    1
    15    20     6    1
    16    20     4    1
    17     6     7    1
    18     6    23    1
    19     1     4    1
    20     1    34    1
    21    25    23    1
    22     9     8    1
    23     7     8   ar
    24     7     5   ar
    25    24    23    1
    26    23     3    1
    27     8    10   ar
    28     5    14   ar
    29    36    34    1
    30    34    37    1
    31    34    35    1
    32    10    11    1
    33    10    12   ar
    34    14    15    1
    35    14    12   ar
    36    12    13    1
    37     3     2    1
    38    47    46    1
    39    49    46    1
    40    43    42    1
    41    46     2    1
    42    46    48    1
    43     2    42    1
    44     2    38    1
    45    42    44    1
    46    42    45    1
    47    41    38    1
    48    38    39    1
    49    38    40    1
