@<TRIPOS>MOLECULE
1,3
 33 33 0 0 0
SMALL
GASTEIGER

@<TRIPOS>ATOM
      1 N           3.9838    3.4676   12.1440 N.3     1  UNL1       -0.3029
      2 N           5.3058    3.7433    9.5621 N.3     1  UNL1       -0.3029
      3 N           2.4045    3.2623    9.6547 N.3     1  UNL1       -0.3029
      4 C           4.3358    2.9274   13.4549 C.3     1  UNL1       -0.0127
      5 C           4.8008    4.6472   11.8468 C.3     1  UNL1        0.0114
      6 C           5.8520    4.3645   10.7666 C.3     1  UNL1        0.0114
      7 C           6.4030    3.3501    8.6839 C.3     1  UNL1       -0.0127
      8 C           4.3707    4.6241    8.8574 C.3     1  UNL1        0.0114
      9 C           3.0430    3.9325    8.5211 C.3     1  UNL1        0.0114
     10 C           1.2235    2.5425    9.1824 C.3     1  UNL1       -0.0127
     11 C           2.0321    4.1913   10.7263 C.3     1  UNL1        0.0114
     12 C           2.5491    3.7505   12.1023 C.3     1  UNL1        0.0114
     13 H           4.0918    3.6344   14.2633 H       1  UNL1        0.0391
     14 H           5.4026    2.7159   13.4866 H       1  UNL1        0.0391
     15 H           3.7975    1.9973   13.6276 H       1  UNL1        0.0391
     16 H           5.3344    4.9873   12.7436 H       1  UNL1        0.0439
     17 H           4.1635    5.4781   11.5386 H       1  UNL1        0.0439
     18 H           6.3692    5.3126   10.5305 H       1  UNL1        0.0439
     19 H           6.5907    3.6726   11.1760 H       1  UNL1        0.0439
     20 H           7.0271    4.2122    8.3997 H       1  UNL1        0.0391
     21 H           6.0033    2.8978    7.7790 H       1  UNL1        0.0391
     22 H           7.0308    2.6149    9.1850 H       1  UNL1        0.0391
     23 H           4.8037    4.9725    7.9104 H       1  UNL1        0.0439
     24 H           4.1821    5.5198    9.4523 H       1  UNL1        0.0439
     25 H           2.3706    4.6881    8.0755 H       1  UNL1        0.0439
     26 H           3.2361    3.1662    7.7676 H       1  UNL1        0.0439
     27 H           0.4678    3.2297    8.7709 H       1  UNL1        0.0391
     28 H           0.7875    1.9840   10.0068 H       1  UNL1        0.0391
     29 H           1.5055    1.8385    8.4015 H       1  UNL1        0.0391
     30 H           0.9403    4.2701   10.8044 H       1  UNL1        0.0439
     31 H           2.3929    5.1955   10.4937 H       1  UNL1        0.0439
     32 H           2.2765    4.5328   12.8343 H       1  UNL1        0.0439
     33 H           2.0363    2.8263   12.3798 H       1  UNL1        0.0439
@<TRIPOS>BOND
     1    26     9    1
     2    21     7    1
     3    23     8    1
     4    25     9    1
     5    20     7    1
     6    29    10    1
     7     9     8    1
     8     9     3    1
     9     7    22    1
    10     7     2    1
    11    27    10    1
    12     8    24    1
    13     8     2    1
    14    10     3    1
    15    10    28    1
    16     2     6    1
    17     3    11    1
    18    31    11    1
    19    18     6    1
    20    11    30    1
    21    11    12    1
    22     6    19    1
    23     6     5    1
    24    17     5    1
    25     5     1    1
    26     5    16    1
    27    12     1    1
    28    12    33    1
    29    12    32    1
    30     1     4    1
    31     4    14    1
    32     4    15    1
    33     4    13    1
