@<TRIPOS>MOLECULE
1,76
 76 77 0 0 0
SMALL
GASTEIGER

@<TRIPOS>ATOM
      1 N           7.7997    9.4986   16.8940 N.pl3   1  UNL1       -0.2039
      2 N           9.5893    7.9293   16.6867 N.3     1  UNL1       -0.2601
      3 C           7.8065   10.0286   15.6094 C.ar    1  UNL1        0.0586
      4 C           9.7916    7.3365   20.0022 C.ar    1  UNL1       -0.0218
      5 C           8.0258   11.4206   15.4663 C.ar    1  UNL1       -0.0218
      6 C           7.9041    5.8333   19.6458 C.ar    1  UNL1       -0.0218
      7 C           8.5866    7.0323   19.3310 C.ar    1  UNL1        0.0586
      8 C           6.5855    5.5302   18.9673 C.3     1  UNL1       -0.0197
      9 H           6.0420    6.4837   18.8931 H       1  UNL1        0.0344
     10 C           6.8034    5.0079   17.5432 C.3     1  UNL1       -0.0586
     11 H           7.4541    4.1344   17.5519 H       1  UNL1        0.0235
     12 H           7.2508    5.7760   16.9210 H       1  UNL1        0.0235
     13 H           5.8503    4.7244   17.1004 H       1  UNL1        0.0235
     14 C           8.4714    8.4385   17.3347 C.3     1  UNL1        0.2491
     15 C          10.0890    6.5886   16.9269 C.3     1  UNL1       -0.0003
     16 H           9.3777    6.0634   17.5578 H       1  UNL1        0.0425
     17 H          11.0391    6.6315   17.4755 H       1  UNL1        0.0425
     18 C           7.4844    9.2637   14.4638 C.ar    1  UNL1       -0.0218
     19 C           7.1145    7.8003   14.5887 C.3     1  UNL1       -0.0197
     20 H           7.6933    7.3704   15.4071 H       1  UNL1        0.0344
     21 C          10.4795    8.6665   19.7823 C.3     1  UNL1       -0.0197
     22 H          10.2443    9.0139   18.7744 H       1  UNL1        0.0344
     23 C           5.7167    4.5326   19.7345 C.3     1  UNL1       -0.0586
     24 H           6.1075    3.5212   19.6390 H       1  UNL1        0.0235
     25 H           4.7069    4.5374   19.3271 H       1  UNL1        0.0235
     26 H           5.6628    4.7843   20.7909 H       1  UNL1        0.0235
     27 C           7.4325    9.8870   13.2271 C.ar    1  UNL1       -0.0565
     28 H           7.1780    9.3147   12.3491 H       1  UNL1        0.0621
     29 C           8.4593    4.9552   20.5608 C.ar    1  UNL1       -0.0565
     30 H           7.9649    4.0223   20.7833 H       1  UNL1        0.0621
     31 C          10.3601    8.7162   15.7423 C.3     1  UNL1       -0.0003
     32 H           9.9451    9.7194   15.7080 H       1  UNL1        0.0425
     33 H          10.2645    8.2913   14.7348 H       1  UNL1        0.0425
     34 C           7.9903   11.9915   14.2061 C.ar    1  UNL1       -0.0565
     35 H           8.1918   13.0443   14.0835 H       1  UNL1        0.0621
     36 C          11.8409    8.8329   16.1061 C.3     1  UNL1       -0.0522
     37 H          11.9598    9.2328   17.1090 H       1  UNL1        0.0242
     38 H          12.3174    9.5143   15.4050 H       1  UNL1        0.0242
     39 H          12.3534    7.8766   16.0502 H       1  UNL1        0.0242
     40 C          10.2945    6.4389   20.9307 C.ar    1  UNL1       -0.0565
     41 H          11.2084    6.6679   21.4565 H       1  UNL1        0.0621
     42 C           9.6508    5.2462   21.1998 C.ar    1  UNL1       -0.0611
     43 H          10.0705    4.5503   21.9113 H       1  UNL1        0.0618
     44 C           8.2841   12.2569   16.7004 C.3     1  UNL1       -0.0197
     45 H           7.5751   11.9040   17.4623 H       1  UNL1        0.0344
     46 C           9.9122    9.6912   20.7687 C.3     1  UNL1       -0.0586
     47 H           8.8346    9.7970   20.6234 H       1  UNL1        0.0235
     48 H          10.3801   10.6623   20.6190 H       1  UNL1        0.0235
     49 H          10.0997    9.3715   21.7925 H       1  UNL1        0.0235
     50 C          12.0017    8.5992   19.9140 C.3     1  UNL1       -0.0586
     51 H          12.3023    8.4662   20.9505 H       1  UNL1        0.0235
     52 H          12.4439    9.5300   19.5618 H       1  UNL1        0.0235
     53 H          12.4093    7.7783   19.3275 H       1  UNL1        0.0235
     54 C           7.7042   11.2339   13.0854 C.ar    1  UNL1       -0.0611
     55 H           7.6810   11.6938   12.1083 H       1  UNL1        0.0618
     56 C          10.2808    5.7679   15.6506 C.3     1  UNL1       -0.0522
     57 H           9.3653    5.7417   15.0665 H       1  UNL1        0.0242
     58 H          10.5395    4.7492   15.9304 H       1  UNL1        0.0242
     59 H          11.0792    6.1607   15.0274 H       1  UNL1        0.0242
     60 C           8.0525   13.7540   16.4965 C.3     1  UNL1       -0.0586
     61 H           8.0653   14.2570   17.4621 H       1  UNL1        0.0235
     62 H           7.0906   13.9436   16.0259 H       1  UNL1        0.0235
     63 H           8.8359   14.1938   15.8821 H       1  UNL1        0.0235
     64 C           9.7010   12.0362   17.2422 C.3     1  UNL1       -0.0586
     65 H           9.8229   11.0116   17.5816 H       1  UNL1        0.0235
     66 H           9.8851   12.6977   18.0872 H       1  UNL1        0.0235
     67 H          10.4423   12.2468   16.4723 H       1  UNL1        0.0235
     68 C           5.6341    7.6776   14.9616 C.3     1  UNL1       -0.0586
     69 H           5.0096    8.1582   14.2099 H       1  UNL1        0.0235
     70 H           5.4590    8.1539   15.9269 H       1  UNL1        0.0235
     71 H           5.3475    6.6301   15.0336 H       1  UNL1        0.0235
     72 C           7.4072    6.9786   13.3327 C.3     1  UNL1       -0.0586
     73 H           6.7079    7.2147   12.5340 H       1  UNL1        0.0235
     74 H           7.3031    5.9177   13.5563 H       1  UNL1        0.0235
     75 H           8.4189    7.1589   12.9748 H       1  UNL1        0.0235
     76 N           7.9747    7.9219   18.4545 N.pl3   1  UNL1       -0.2039
@<TRIPOS>BOND
     1    55    54    1
     2    28    27    1
     3    73    72    1
     4    75    72    1
     5    54    27   ar
     6    54    34   ar
     7    27    18   ar
     8    72    74    1
     9    72    19    1
    10    35    34    1
    11    34     5   ar
    12    69    68    1
    13    18    19    1
    14    18     3   ar
    15    19    68    1
    16    19    20    1
    17    33    31    1
    18    68    71    1
    19    68    70    1
    20    59    56    1
    21    57    56    1
    22    38    36    1
    23     5     3   ar
    24     5    44    1
    25     3     1    1
    26    56    58    1
    27    56    15    1
    28    32    31    1
    29    31    36    1
    30    31     2    1
    31    63    60    1
    32    62    60    1
    33    39    36    1
    34    36    37    1
    35    67    64    1
    36    60    44    1
    37    60    61    1
    38     2    15    1
    39     2    14    1
    40    44    64    1
    41    44    45    1
    42     1    14    1
    43    12    10    1
    44    15    17    1
    45    15    16    1
    46    13    10    1
    47    64    65    1
    48    64    66    1
    49    14    76    1
    50    10    11    1
    51    10     8    1
    52    76     7    1
    53    22    21    1
    54     9     8    1
    55     8     6    1
    56     8    23    1
    57    25    23    1
    58    53    50    1
    59     7     6   ar
    60     7     4   ar
    61    52    50    1
    62    24    23    1
    63     6    29   ar
    64    23    26    1
    65    21    50    1
    66    21     4    1
    67    21    46    1
    68    50    51    1
    69     4    40   ar
    70    29    30    1
    71    29    42   ar
    72    48    46    1
    73    47    46    1
    74    46    49    1
    75    40    42   ar
    76    40    41    1
    77    42    43    1
