@<TRIPOS>MOLECULE
1,4
 49 48 0 0 0
SMALL
GASTEIGER

@<TRIPOS>ATOM
      1 N           9.0050    3.0716    8.2602 N.3     1  UNL1       -0.2002
      2 N          11.1308    3.9586    8.0743 N.3     1  UNL1       -0.2734
      3 N          10.4182    2.4486    6.4707 N.3     1  UNL1       -0.2734
      4 N           6.6513    2.8053   10.2847 N.3     1  UNL1       -0.2002
      5 N           4.3556    3.0054   10.4504 N.3     1  UNL1       -0.2734
      6 N           5.5085    2.0095   12.1943 N.3     1  UNL1       -0.2734
      7 C           8.2120    1.8714    8.0678 C.3     1  UNL1        0.0186
      8 H           8.6370    1.2088    7.3094 H       1  UNL1        0.0442
      9 H           7.2037    2.1586    7.7610 H       1  UNL1        0.0442
     10 C           8.1240    1.0745    9.3711 C.3     1  UNL1       -0.0245
     11 H           9.0811    0.5867    9.5688 H       1  UNL1        0.0291
     12 H           7.3630    0.3016    9.2425 H       1  UNL1        0.0291
     13 C           7.7779    1.9411   10.5837 C.3     1  UNL1        0.0186
     14 H           7.5722    1.2650   11.4178 H       1  UNL1        0.0442
     15 H           8.6434    2.5588   10.8348 H       1  UNL1        0.0442
     16 C          10.1216    3.1779    7.6101 C.3     1  UNL1        0.1934
     17 C          12.1007    4.5901    7.2144 C.3     1  UNL1       -0.0100
     18 H          11.7935    4.5160    6.1749 H       1  UNL1        0.0392
     19 H          12.1718    5.6476    7.4737 H       1  UNL1        0.0392
     20 H          13.0931    4.1413    7.3339 H       1  UNL1        0.0392
     21 C          11.1662    4.3918    9.4457 C.3     1  UNL1       -0.0100
     22 H          10.5468    3.7291   10.0420 H       1  UNL1        0.0392
     23 H          12.1963    4.3533    9.8056 H       1  UNL1        0.0392
     24 H          10.7853    5.4077    9.5628 H       1  UNL1        0.0392
     25 C          11.6931    1.8072    6.2788 C.3     1  UNL1       -0.0100
     26 H          12.2650    1.8378    7.2020 H       1  UNL1        0.0392
     27 H          11.5274    0.7576    6.0108 H       1  UNL1        0.0392
     28 H          12.2776    2.2697    5.4750 H       1  UNL1        0.0392
     29 C           9.5140    2.3597    5.3526 C.3     1  UNL1       -0.0100
     30 H           8.5691    2.8306    5.6047 H       1  UNL1        0.0392
     31 H           9.9414    2.8743    4.4832 H       1  UNL1        0.0392
     32 H           9.3334    1.3157    5.0741 H       1  UNL1        0.0392
     33 C           5.5587    2.6420   10.9636 C.3     1  UNL1        0.1934
     34 C           4.1903    3.2400    9.0408 C.3     1  UNL1       -0.0100
     35 H           4.9898    2.7400    8.5032 H       1  UNL1        0.0392
     36 H           3.2266    2.8377    8.7222 H       1  UNL1        0.0392
     37 H           4.2314    4.3028    8.7965 H       1  UNL1        0.0392
     38 C           3.2341    3.3993   11.2665 C.3     1  UNL1       -0.0100
     39 H           3.5470    3.5499   12.2959 H       1  UNL1        0.0392
     40 H           2.8337    4.3422   10.8910 H       1  UNL1        0.0392
     41 H           2.4349    2.6507   11.2344 H       1  UNL1        0.0392
     42 C           4.5052    1.0280   12.5160 C.3     1  UNL1       -0.0100
     43 H           3.9440    0.7662   11.6233 H       1  UNL1        0.0392
     44 H           4.9973    0.1235   12.8909 H       1  UNL1        0.0392
     45 H           3.8123    1.3775   13.2900 H       1  UNL1        0.0392
     46 C           6.4093    2.3397   13.2693 C.3     1  UNL1       -0.0100
     47 H           7.1550    3.0475   12.9211 H       1  UNL1        0.0392
     48 H           5.8518    2.7947   14.0969 H       1  UNL1        0.0392
     49 H           6.9133    1.4451   13.6512 H       1  UNL1        0.0392
@<TRIPOS>BOND
     1    31    29    1
     2    32    29    1
     3    29    30    1
     4    29     3    1
     5    28    25    1
     6    27    25    1
     7    18    17    1
     8    25     3    1
     9    25    26    1
    10     3    16    1
    11    17    20    1
    12    17    19    1
    13    17     2    1
    14     8     7    1
    15    16     2    1
    16    16     1    1
    17     9     7    1
    18     7     1    1
    19     7    10    1
    20     2    21    1
    21    35    34    1
    22    36    34    1
    23    37    34    1
    24    34     5    1
    25    12    10    1
    26    10    11    1
    27    10    13    1
    28    21    24    1
    29    21    23    1
    30    21    22    1
    31     4    13    1
    32     4    33    1
    33     5    33    1
    34     5    38    1
    35    13    15    1
    36    13    14    1
    37    40    38    1
    38    33     6    1
    39    41    38    1
    40    38    39    1
    41    43    42    1
    42     6    42    1
    43     6    46    1
    44    42    44    1
    45    42    45    1
    46    47    46    1
    47    46    49    1
    48    46    48    1
