@<TRIPOS>MOLECULE
1,2
 48 50 0 0 0
SMALL
GASTEIGER

@<TRIPOS>ATOM
      1 N           2.5145   10.2992    4.4422 N.pl3   1  UNL1       -0.2143
      2 N           2.4961    9.4541    2.3730 N.pl3   1  UNL1       -0.2143
      3 C           3.0164   10.3385    3.2167 C.3     1  UNL1        0.2052
      4 C           4.0602   11.3049    2.7984 C.ar    1  UNL1        0.0011
      5 C           5.1314   11.6132    3.6329 C.ar    1  UNL1       -0.0547
      6 H           5.2174   11.1335    4.5952 H       1  UNL1        0.0622
      7 C           6.0928   12.5216    3.2291 C.ar    1  UNL1       -0.0614
      8 H           6.9195   12.7519    3.8849 H       1  UNL1        0.0618
      9 C           5.9984   13.1328    1.9903 C.ar    1  UNL1       -0.0617
     10 H           6.7506   13.8415    1.6771 H       1  UNL1        0.0618
     11 C           4.9357   12.8316    1.1548 C.ar    1  UNL1       -0.0614
     12 H           4.8562   13.3058    0.1879 H       1  UNL1        0.0618
     13 C           3.9722   11.9242    1.5542 C.ar    1  UNL1       -0.0547
     14 H           3.1391   11.7014    0.9062 H       1  UNL1        0.0622
     15 C           2.7773   11.2624    5.4260 C.ar    1  UNL1        0.0566
     16 C           3.3870   10.8390    6.6203 C.ar    1  UNL1       -0.0275
     17 C           3.5680   11.7430    7.6541 C.ar    1  UNL1       -0.0570
     18 H           4.0398   11.4129    8.5691 H       1  UNL1        0.0621
     19 C           3.1623   13.0595    7.5231 C.ar    1  UNL1       -0.0611
     20 H           3.3101   13.7569    8.3339 H       1  UNL1        0.0618
     21 C           2.5674   13.4747    6.3468 C.ar    1  UNL1       -0.0570
     22 H           2.2483   14.5017    6.2402 H       1  UNL1        0.0621
     23 C           2.3644   12.5965    5.2915 C.ar    1  UNL1       -0.0275
     24 C           3.8696    9.4243    6.7492 C.3     1  UNL1       -0.0379
     25 H           4.0301    9.1656    7.7939 H       1  UNL1        0.0278
     26 H           4.8157    9.2957    6.2202 H       1  UNL1        0.0278
     27 H           3.1524    8.7303    6.3021 H       1  UNL1        0.0278
     28 C           1.6998   13.0811    4.0385 C.3     1  UNL1       -0.0379
     29 H           2.4434   13.4604    3.3361 H       1  UNL1        0.0278
     30 H           1.0076   13.8890    4.2661 H       1  UNL1        0.0278
     31 H           1.1534   12.2726    3.5547 H       1  UNL1        0.0278
     32 C           3.1073    9.0856    1.1687 C.ar    1  UNL1        0.0566
     33 C           2.3547    9.1517   -0.0149 C.ar    1  UNL1       -0.0275
     34 C           2.9344    8.7643   -1.2111 C.ar    1  UNL1       -0.0570
     35 H           2.3582    8.8246   -2.1233 H       1  UNL1        0.0621
     36 C           4.2381    8.3012   -1.2496 C.ar    1  UNL1       -0.0611
     37 H           4.6838    8.0106   -2.1890 H       1  UNL1        0.0618
     38 C           4.9552    8.1804   -0.0739 C.ar    1  UNL1       -0.0570
     39 H           5.9575    7.7762   -0.0957 H       1  UNL1        0.0621
     40 C           4.4048    8.5509    1.1448 C.ar    1  UNL1       -0.0275
     41 C           5.1645    8.3132    2.4168 C.3     1  UNL1       -0.0379
     42 H           5.7038    9.2086    2.7280 H       1  UNL1        0.0278
     43 H           5.8915    7.5164    2.2714 H       1  UNL1        0.0278
     44 H           4.4779    8.0242    3.2174 H       1  UNL1        0.0278
     45 C           0.9380    9.6381    0.0386 C.3     1  UNL1       -0.0379
     46 H           0.3854    9.1022    0.8190 H       1  UNL1        0.0278
     47 H           0.4448    9.4873   -0.9189 H       1  UNL1        0.0278
     48 H           0.8992   10.7004    0.2836 H       1  UNL1        0.0278
@<TRIPOS>BOND
     1    37    36    1
     2    35    34    1
     3    36    34   ar
     4    36    38   ar
     5    34    33   ar
     6    47    45    1
     7    39    38    1
     8    38    40   ar
     9    33    45    1
    10    33    32   ar
    11    45    48    1
    12    45    46    1
    13    12    11    1
    14    14    13    1
    15    40    32   ar
    16    40    41    1
    17    11    13   ar
    18    11     9   ar
    19    32     2    1
    20    13     4   ar
    21    10     9    1
    22     9     7   ar
    23    43    41    1
    24     2     3    1
    25    41    42    1
    26    41    44    1
    27     4     3    1
    28     4     5   ar
    29     3     1    1
    30     7     5   ar
    31     7     8    1
    32    29    28    1
    33    31    28    1
    34     5     6    1
    35    28    30    1
    36    28    23    1
    37     1    15    1
    38    23    15   ar
    39    23    21   ar
    40    15    16   ar
    41    26    24    1
    42    22    21    1
    43    27    24    1
    44    21    19   ar
    45    16    24    1
    46    16    17   ar
    47    24    25    1
    48    19    17   ar
    49    19    20    1
    50    17    18    1
