@<TRIPOS>MOLECULE
1,2
 72 74 0 0 0
SMALL
GASTEIGER

@<TRIPOS>ATOM
      1 N           4.8055    4.2211   24.0069 N.pl3   1  UNL1       -0.2142
      2 N           3.9796    2.1641   24.1670 N.pl3   1  UNL1       -0.2142
      3 C           4.8938    3.0299   24.5998 C.3     1  UNL1        0.2052
      4 C           5.5760    5.3387   24.3968 C.ar    1  UNL1        0.0576
      5 C           6.4392    5.9276   23.4506 C.ar    1  UNL1       -0.0219
      6 C           7.2223    7.0069   23.8339 C.ar    1  UNL1       -0.0565
      7 H           7.9143    7.4438   23.1328 H       1  UNL1        0.0621
      8 C           7.1429    7.5317   25.1101 C.ar    1  UNL1       -0.0611
      9 H           7.7707    8.3615   25.3949 H       1  UNL1        0.0618
     10 C           6.2430    6.9983   26.0095 C.ar    1  UNL1       -0.0565
     11 H           6.1612    7.4318   26.9937 H       1  UNL1        0.0621
     12 C           5.4484    5.9105   25.6752 C.ar    1  UNL1       -0.0219
     13 C           6.5361    5.3856   22.0390 C.3     1  UNL1       -0.0197
     14 H           5.5694    4.9110   21.7796 H       1  UNL1        0.0344
     15 C           6.8212    6.4897   21.0172 C.3     1  UNL1       -0.0586
     16 H           6.1867    7.3570   21.1859 H       1  UNL1        0.0235
     17 H           6.6447    6.1171   20.0113 H       1  UNL1        0.0235
     18 H           7.8595    6.8078   21.0660 H       1  UNL1        0.0235
     19 C           7.6247    4.3115   21.9381 C.3     1  UNL1       -0.0586
     20 H           8.5733    4.7002   22.3045 H       1  UNL1        0.0235
     21 H           7.7505    4.0084   20.9017 H       1  UNL1        0.0235
     22 H           7.3585    3.4295   22.5161 H       1  UNL1        0.0235
     23 C           4.4373    5.4181   26.6858 C.3     1  UNL1       -0.0197
     24 H           3.9229    4.5469   26.2650 H       1  UNL1        0.0344
     25 C           3.3918    6.5057   26.9593 C.3     1  UNL1       -0.0586
     26 H           3.8520    7.3662   27.4369 H       1  UNL1        0.0235
     27 H           2.6168    6.1249   27.6214 H       1  UNL1        0.0235
     28 H           2.9297    6.8442   26.0342 H       1  UNL1        0.0235
     29 C           5.0986    5.0053   28.0028 C.3     1  UNL1       -0.0586
     30 H           5.9149    4.3108   27.8290 H       1  UNL1        0.0235
     31 H           4.3697    4.5276   28.6541 H       1  UNL1        0.0235
     32 H           5.4956    5.8736   28.5211 H       1  UNL1        0.0235
     33 C           3.9114    0.8181   24.5968 C.ar    1  UNL1        0.0576
     34 C           4.8994   -0.1164   24.2433 C.ar    1  UNL1       -0.0219
     35 C           4.7737   -1.4247   24.6912 C.ar    1  UNL1       -0.0565
     36 H           5.5328   -2.1471   24.4361 H       1  UNL1        0.0621
     37 C           3.7006   -1.8192   25.4638 C.ar    1  UNL1       -0.0611
     38 H           3.6290   -2.8365   25.8159 H       1  UNL1        0.0618
     39 C           2.7118   -0.9056   25.7791 C.ar    1  UNL1       -0.0565
     40 H           1.8745   -1.2262   26.3778 H       1  UNL1        0.0621
     41 C           2.7909    0.4098   25.3483 C.ar    1  UNL1       -0.0219
     42 C           6.0731    0.2442   23.3611 C.3     1  UNL1       -0.0197
     43 H           6.0205    1.3130   23.1199 H       1  UNL1        0.0344
     44 C           7.4069   -0.0344   24.0592 C.3     1  UNL1       -0.0586
     45 H           7.4419    0.4337   25.0388 H       1  UNL1        0.0235
     46 H           8.2277    0.3541   23.4607 H       1  UNL1        0.0235
     47 H           7.5583   -1.1029   24.1867 H       1  UNL1        0.0235
     48 C           6.0066   -0.5366   22.0446 C.3     1  UNL1       -0.0586
     49 H           6.0491   -1.6071   22.2277 H       1  UNL1        0.0235
     50 H           6.8468   -0.2638   21.4108 H       1  UNL1        0.0235
     51 H           5.0889   -0.3111   21.5068 H       1  UNL1        0.0235
     52 C           1.7058    1.4034   25.7091 C.3     1  UNL1       -0.0197
     53 H           1.6860    2.1615   24.9104 H       1  UNL1        0.0344
     54 C           2.0238    2.1021   27.0369 C.3     1  UNL1       -0.0586
     55 H           2.1955    1.3630   27.8171 H       1  UNL1        0.0235
     56 H           1.1898    2.7306   27.3441 H       1  UNL1        0.0235
     57 H           2.9080    2.7276   26.9520 H       1  UNL1        0.0235
     58 C           0.3196    0.7623   25.8148 C.3     1  UNL1       -0.0586
     59 H           0.2291    0.1826   26.7299 H       1  UNL1        0.0235
     60 H           0.1186    0.1086   24.9716 H       1  UNL1        0.0235
     61 H          -0.4476    1.5347   25.8448 H       1  UNL1        0.0235
     62 C           5.9244    2.6962   25.6142 C.ar    1  UNL1        0.0011
     63 C           7.2185    3.2030   25.4916 C.ar    1  UNL1       -0.0547
     64 H           7.4752    3.8398   24.6633 H       1  UNL1        0.0622
     65 C           8.1940    2.8877   26.4193 C.ar    1  UNL1       -0.0614
     66 H           9.1881    3.2908   26.3013 H       1  UNL1        0.0618
     67 C           7.9015    2.0603   27.4903 C.ar    1  UNL1       -0.0617
     68 H           8.6630    1.8161   28.2146 H       1  UNL1        0.0618
     69 C           6.6225    1.5468   27.6203 C.ar    1  UNL1       -0.0614
     70 H           6.3801    0.8984   28.4483 H       1  UNL1        0.0618
     71 C           5.6441    1.8579   26.6931 C.ar    1  UNL1       -0.0547
     72 H           4.6593    1.4460   26.8235 H       1  UNL1        0.0622
@<TRIPOS>BOND
     1    17    15    1
     2    21    19    1
     3    15    18    1
     4    15    16    1
     5    15    13    1
     6    50    48    1
     7    51    48    1
     8    14    13    1
     9    19    13    1
    10    19    20    1
    11    19    22    1
    12    13     5    1
    13    48    49    1
    14    48    42    1
    15    43    42    1
    16     7     6    1
    17    42    44    1
    18    42    34    1
    19     5     6   ar
    20     5     4   ar
    21    46    44    1
    22     6     8   ar
    23     1     4    1
    24     1     3    1
    25    44    47    1
    26    44    45    1
    27     2    33    1
    28     2     3    1
    29    34    33   ar
    30    34    35   ar
    31     4    12   ar
    32    36    35    1
    33    33    41   ar
    34     3    62    1
    35    64    63    1
    36    35    37   ar
    37    53    52    1
    38    60    58    1
    39     8     9    1
    40     8    10   ar
    41    41    52    1
    42    41    39   ar
    43    37    39   ar
    44    37    38    1
    45    63    62   ar
    46    63    65   ar
    47    62    71   ar
    48    12    10   ar
    49    12    23    1
    50    52    58    1
    51    52    54    1
    52    39    40    1
    53    58    61    1
    54    58    59    1
    55    10    11    1
    56    28    25    1
    57    24    23    1
    58    66    65    1
    59    65    67   ar
    60    23    25    1
    61    23    29    1
    62    71    72    1
    63    71    69   ar
    64    57    54    1
    65    25    26    1
    66    25    27    1
    67    54    56    1
    68    54    55    1
    69    67    69   ar
    70    67    68    1
    71    69    70    1
    72    30    29    1
    73    29    32    1
    74    29    31    1
