@<TRIPOS>MOLECULE
1,2
 24 23 0 0 0
SMALL
GASTEIGER

@<TRIPOS>ATOM
      1 N           8.3649    2.9862    6.7220 N.3     1  UNL1       -0.3071
      2 N           9.5801    1.5762    9.0945 N.3     1  UNL1       -0.3071
      3 C           7.2784    2.3262    5.9912 C.3     1  UNL1       -0.0130
      4 H           6.3620    2.9021    6.1254 H       1  UNL1        0.0391
      5 H           7.1024    1.3226    6.3731 H       1  UNL1        0.0391
      6 H           7.5069    2.2640    4.9187 H       1  UNL1        0.0391
      7 C           8.5812    4.3001    6.1075 C.3     1  UNL1       -0.0130
      8 H           9.3758    4.8344    6.6265 H       1  UNL1        0.0391
      9 H           7.6663    4.8863    6.1932 H       1  UNL1        0.0391
     10 H           8.8457    4.2037    5.0465 H       1  UNL1        0.0391
     11 C           9.5958    2.1887    6.6651 C.3     1  UNL1        0.0111
     12 H          10.4453    2.8540    6.8426 H       1  UNL1        0.0439
     13 H           9.7252    1.7388    5.6683 H       1  UNL1        0.0439
     14 C           9.5919    1.0698    7.7108 C.3     1  UNL1        0.0111
     15 H           8.6963    0.4559    7.5794 H       1  UNL1        0.0439
     16 H          10.4722    0.4289    7.5495 H       1  UNL1        0.0439
     17 C          10.8932    2.1165    9.4595 C.3     1  UNL1       -0.0130
     18 H          11.6782    1.3617    9.3254 H       1  UNL1        0.0391
     19 H          10.8753    2.4291   10.5020 H       1  UNL1        0.0391
     20 H          11.1343    2.9933    8.8632 H       1  UNL1        0.0391
     21 C           9.2853    0.4598   10.0019 C.3     1  UNL1       -0.0130
     22 H          10.0492   -0.3229    9.9176 H       1  UNL1        0.0391
     23 H           8.3132    0.0334    9.7601 H       1  UNL1        0.0391
     24 H           9.2592    0.8210   11.0290 H       1  UNL1        0.0391
@<TRIPOS>BOND
     1     6     3    1
     2    10     7    1
     3    13    11    1
     4     3     4    1
     5     3     5    1
     6     3     1    1
     7     7     9    1
     8     7     8    1
     9     7     1    1
    10    11     1    1
    11    11    12    1
    12    11    14    1
    13    16    14    1
    14    15    14    1
    15    14     2    1
    16    20    17    1
    17     2    17    1
    18     2    21    1
    19    18    17    1
    20    17    19    1
    21    23    21    1
    22    22    21    1
    23    21    24    1
