@<TRIPOS>MOLECULE
1,2
 24 23 0 0 0
SMALL
GASTEIGER

@<TRIPOS>ATOM
      1 N           4.2225   -3.9295   28.2773 N.3     1  UNL1       -0.3071
      2 N           6.5120   -2.5304   26.9154 N.3     1  UNL1       -0.3071
      3 C           3.1028   -4.7984   27.8862 C.3     1  UNL1       -0.0130
      4 H           3.0917   -4.9348   26.8060 H       1  UNL1        0.0391
      5 H           2.1644   -4.3307   28.1797 H       1  UNL1        0.0391
      6 H           3.1827   -5.7784   28.3723 H       1  UNL1        0.0391
      7 C           4.1509   -3.7610   29.7345 C.3     1  UNL1       -0.0130
      8 H           4.1731   -4.7342   30.2419 H       1  UNL1        0.0391
      9 H           3.2188   -3.2530   29.9845 H       1  UNL1        0.0391
     10 H           4.9734   -3.1514   30.1038 H       1  UNL1        0.0391
     11 C           5.4795   -4.5853   27.8923 C.3     1  UNL1        0.0111
     12 H           5.7029   -5.4211   28.5742 H       1  UNL1        0.0439
     13 H           5.3524   -4.9978   26.8874 H       1  UNL1        0.0439
     14 C           6.6572   -3.6135   27.9014 C.3     1  UNL1        0.0111
     15 H           7.5840   -4.1775   27.7105 H       1  UNL1        0.0439
     16 H           6.7430   -3.1517   28.8892 H       1  UNL1        0.0439
     17 C           7.5361   -1.5222   27.2154 C.3     1  UNL1       -0.0130
     18 H           8.5340   -1.9784   27.2378 H       1  UNL1        0.0391
     19 H           7.3338   -1.0618   28.1808 H       1  UNL1        0.0391
     20 H           7.5290   -0.7520   26.4482 H       1  UNL1        0.0391
     21 C           6.7850   -3.0288   25.5627 C.3     1  UNL1       -0.0130
     22 H           7.7908   -3.4646   25.5030 H       1  UNL1        0.0391
     23 H           6.7225   -2.2003   24.8584 H       1  UNL1        0.0391
     24 H           6.0533   -3.7744   25.2616 H       1  UNL1        0.0391
@<TRIPOS>BOND
     1    23    21    1
     2    24    21    1
     3    22    21    1
     4    21     2    1
     5    20    17    1
     6     4     3    1
     7    13    11    1
     8     2    17    1
     9     2    14    1
    10    17    18    1
    11    17    19    1
    12    15    14    1
    13     3     5    1
    14     3     1    1
    15     3     6    1
    16    11    14    1
    17    11     1    1
    18    11    12    1
    19    14    16    1
    20     1     7    1
    21     7     9    1
    22     7    10    1
    23     7     8    1
