@<TRIPOS>MOLECULE
6,7
 31 30 0 0 0
SMALL
GASTEIGER

@<TRIPOS>ATOM
      1 CL          2.0321   -0.4024    1.1208 Cl      1  UNL1        0.0000
      2 CL          0.7677    2.3638    0.4746 Cl      1  UNL1        0.0000
      3 P           1.9588    1.4709    1.7844 P.3     1  UNL1        0.0000
      4 SI          4.3530    2.7194    0.5330 Si      1  UNL1        0.0000
      5 SI         -0.2330    1.3924    3.7887 Si      1  UNL1        0.0000
      6 N           3.4131    2.1051    1.8769 N.3     1  UNL1        0.0000
      7 N           1.4395    1.5281    3.2855 N.3     1  UNL1        0.0000
      8 C           6.1877    2.5168    1.0122 C.3     1  UNL1        0.0000
      9 H           6.4103    3.0307    1.9417 H       1  UNL1        0.0000
     10 H           6.8002    2.9597    0.2354 H       1  UNL1        0.0000
     11 H           6.4897    1.4786    1.1119 H       1  UNL1        0.0000
     12 C           3.9251    4.5509    0.2207 C.3     1  UNL1        0.0000
     13 H           4.1267    5.1431    1.1122 H       1  UNL1        0.0000
     14 H           2.8779    4.6966   -0.0357 H       1  UNL1        0.0000
     15 H           4.5262    4.9545   -0.5878 H       1  UNL1        0.0000
     16 C           3.9755    1.6520   -1.0062 C.3     1  UNL1        0.0000
     17 H           4.1509    0.5965   -0.8178 H       1  UNL1        0.0000
     18 H           4.6173    1.9478   -1.8288 H       1  UNL1        0.0000
     19 H           2.9469    1.7611   -1.3376 H       1  UNL1        0.0000
     20 C          -1.1188    0.1723    2.6152 C.3     1  UNL1        0.0000
     21 H          -0.6193   -0.7921    2.5855 H       1  UNL1        0.0000
     22 H          -1.1715    0.5476    1.5973 H       1  UNL1        0.0000
     23 H          -2.1349    0.0030    2.9544 H       1  UNL1        0.0000
     24 C          -1.0694    3.1054    3.7648 C.3     1  UNL1        0.0000
     25 H          -1.0815    3.5504    2.7722 H       1  UNL1        0.0000
     26 H          -0.5403    3.7931    4.4230 H       1  UNL1        0.0000
     27 H          -2.0951    3.0370    4.1128 H       1  UNL1        0.0000
     28 C          -0.2273    0.6680    5.5539 C.3     1  UNL1        0.0000
     29 H           0.1371   -0.3548    5.5936 H       1  UNL1        0.0000
     30 H          -1.2456    0.6610    5.9255 H       1  UNL1        0.0000
     31 H           0.3652    1.2751    6.2317 H       1  UNL1        0.0000
@<TRIPOS>BOND
     1    18    16    1
     2    19    16    1
     3    16    17    1
     4    16     4    1
     5    15    12    1
     6    14    12    1
     7    12     4    1
     8    12    13    1
     9    10     8    1
    10     2     3    1
    11     4     8    1
    12     4     6    1
    13     8    11    1
    14     8     9    1
    15     1     3    1
    16    22    20    1
    17     3     6    1
    18     3     7    1
    19    21    20    1
    20    20    23    1
    21    20     5    1
    22    25    24    1
    23     7     5    1
    24    24     5    1
    25    24    27    1
    26    24    26    1
    27     5    28    1
    28    28    29    1
    29    28    30    1
    30    28    31    1
