@<TRIPOS>MOLECULE
6,7
 31 30 0 0 0
SMALL
GASTEIGER

@<TRIPOS>ATOM
      1 CL          4.0978    7.0134    3.6331 Cl      1  UNL1        0.0000
      2 CL          5.4849    5.3162    1.4083 Cl      1  UNL1        0.0000
      3 P           4.1448    5.2135    2.8479 P.3     1  UNL1        0.0000
      4 SI          1.7075    5.4060    1.0540 Si      1  UNL1        0.0000
      5 SI          5.9392    3.8467    4.8723 Si      1  UNL1        0.0000
      6 N           2.7199    4.7319    2.3230 N.3     1  UNL1        0.0000
      7 N           4.4819    4.0824    3.9179 N.3     1  UNL1        0.0000
      8 C          -0.0254    5.3968    1.8453 C.3     1  UNL1        0.0000
      9 H          -0.2444    4.4229    2.2807 H       1  UNL1        0.0000
     10 H          -0.7907    5.6161    1.1094 H       1  UNL1        0.0000
     11 H          -0.1047    6.1347    2.6404 H       1  UNL1        0.0000
     12 C           2.3165    7.1658    0.6513 C.3     1  UNL1        0.0000
     13 H           3.3693    7.1814    0.3810 H       1  UNL1        0.0000
     14 H           2.1783    7.8436    1.4887 H       1  UNL1        0.0000
     15 H           1.7564    7.5653   -0.1869 H       1  UNL1        0.0000
     16 C           1.9237    4.2226   -0.4261 C.3     1  UNL1        0.0000
     17 H           2.9318    4.2695   -0.8336 H       1  UNL1        0.0000
     18 H           1.2298    4.4619   -1.2248 H       1  UNL1        0.0000
     19 H           1.7441    3.1917   -0.1227 H       1  UNL1        0.0000
     20 C           5.2525    3.4487    6.6040 C.3     1  UNL1        0.0000
     21 H           4.5109    2.6529    6.5509 H       1  UNL1        0.0000
     22 H           4.7694    4.3154    7.0501 H       1  UNL1        0.0000
     23 H           6.0440    3.1270    7.2717 H       1  UNL1        0.0000
     24 C           6.8571    2.4083    4.0199 C.3     1  UNL1        0.0000
     25 H           6.1851    1.5649    3.8614 H       1  UNL1        0.0000
     26 H           7.6913    2.0632    4.6219 H       1  UNL1        0.0000
     27 H           7.2457    2.7011    3.0459 H       1  UNL1        0.0000
     28 C           6.9582    5.4563    4.8458 C.3     1  UNL1        0.0000
     29 H           6.4433    6.2694    5.3492 H       1  UNL1        0.0000
     30 H           7.1825    5.7811    3.8331 H       1  UNL1        0.0000
     31 H           7.9017    5.3021    5.3577 H       1  UNL1        0.0000
@<TRIPOS>BOND
     1    18    16    1
     2    17    16    1
     3    16    19    1
     4    16     4    1
     5    15    12    1
     6    13    12    1
     7    12     4    1
     8    12    14    1
     9     4     8    1
    10     4     6    1
    11    10     8    1
    12     2     3    1
    13     8     9    1
    14     8    11    1
    15     6     3    1
    16     3     1    1
    17     3     7    1
    18    27    24    1
    19    30    28    1
    20    25    24    1
    21     7     5    1
    22    24    26    1
    23    24     5    1
    24    28     5    1
    25    28    29    1
    26    28    31    1
    27     5    20    1
    28    21    20    1
    29    20    22    1
    30    20    23    1
