@<TRIPOS>MOLECULE
6,7
 31 30 0 0 0
SMALL
GASTEIGER

@<TRIPOS>ATOM
      1 CL          6.3470   -0.4298    6.5303 Cl      1  UNL1        0.0000
      2 CL          7.3939    2.5003    6.8335 Cl      1  UNL1        0.0000
      3 P           6.2473    1.3564    5.6801 P.3     1  UNL1        0.0000
      4 SI          3.8282    2.6419    6.8652 Si      1  UNL1        0.0000
      5 SI          8.3968    1.3456    3.6128 Si      1  UNL1        0.0000
      6 N           4.7543    1.8991    5.5844 N.3     1  UNL1        0.0000
      7 N           6.7392    1.3368    4.1662 N.3     1  UNL1        0.0000
      8 C           2.0001    2.3900    6.3779 C.3     1  UNL1        0.0000
      9 H           1.7268    1.3443    6.2746 H       1  UNL1        0.0000
     10 H           1.7732    2.9018    5.4474 H       1  UNL1        0.0000
     11 H           1.3692    2.8157    7.1493 H       1  UNL1        0.0000
     12 C           4.2243    4.5026    7.0046 C.3     1  UNL1        0.0000
     13 H           5.2671    4.6966    7.2482 H       1  UNL1        0.0000
     14 H           3.6149    4.9654    7.7748 H       1  UNL1        0.0000
     15 H           4.0061    5.0118    6.0651 H       1  UNL1        0.0000
     16 C           4.2138    1.7355    8.5018 C.3     1  UNL1        0.0000
     17 H           4.0334    0.6679    8.4155 H       1  UNL1        0.0000
     18 H           3.5855    2.1106    9.3018 H       1  UNL1        0.0000
     19 H           5.2485    1.8703    8.8040 H       1  UNL1        0.0000
     20 C           9.4430    0.2733    4.7976 C.3     1  UNL1        0.0000
     21 H           9.5049    0.7103    5.7901 H       1  UNL1        0.0000
     22 H          10.4542    0.1675    4.4211 H       1  UNL1        0.0000
     23 H           9.0260   -0.7241    4.9032 H       1  UNL1        0.0000
     24 C           9.0797    3.1235    3.5171 C.3     1  UNL1        0.0000
     25 H           9.0997    3.6218    4.4844 H       1  UNL1        0.0000
     26 H           8.4721    3.7319    2.8461 H       1  UNL1        0.0000
     27 H          10.0929    3.1210    3.1269 H       1  UNL1        0.0000
     28 C           8.3648    0.5584    1.8731 C.3     1  UNL1        0.0000
     29 H           7.9927   -0.4622    1.8730 H       1  UNL1        0.0000
     30 H           9.3765    0.5319    1.4852 H       1  UNL1        0.0000
     31 H           7.7663    1.1501    1.1861 H       1  UNL1        0.0000
@<TRIPOS>BOND
     1    31    28    1
     2    30    28    1
     3    29    28    1
     4    28     5    1
     5    26    24    1
     6    27    24    1
     7    24     5    1
     8    24    25    1
     9     5     7    1
    10     5    20    1
    11     7     3    1
    12    22    20    1
    13    20    23    1
    14    20    21    1
    15    10     8    1
    16     6     3    1
    17     6     4    1
    18     3     1    1
    19     3     2    1
    20    15    12    1
    21     9     8    1
    22     8     4    1
    23     8    11    1
    24     4    12    1
    25     4    16    1
    26    12    13    1
    27    12    14    1
    28    17    16    1
    29    16    19    1
    30    16    18    1
