@<TRIPOS>MOLECULE
1,2
 20 21 0 0 0
SMALL
GASTEIGER

@<TRIPOS>ATOM
      1 N           3.4638    1.2330    7.4513 N.pl3   1  UNL1       -0.2427
      2 N           5.0722    2.7722    6.5096 N.pl3   1  UNL1       -0.2387
      3 C           2.4578    0.4780    7.8986 C.3     1  UNL1        0.0844
      4 H           1.4701    0.7920    7.5931 H       1  UNL1        0.0584
      5 C           2.6452   -0.6276    8.6948 C.2     1  UNL1       -0.0600
      6 H           1.7976   -1.1995    9.0358 H       1  UNL1        0.0592
      7 C           3.9465   -0.9962    9.0498 C.2     1  UNL1       -0.0623
      8 H           4.1215   -1.8619    9.6683 H       1  UNL1        0.0616
      9 C           4.9960   -0.2294    8.5927 C.2     1  UNL1       -0.0408
     10 H           6.0142   -0.4782    8.8452 H       1  UNL1        0.0634
     11 C           4.7354    0.8897    7.7998 C.2     1  UNL1        0.0578
     12 C           5.6898    1.8053    7.2432 C.3     1  UNL1        0.1419
     13 C           7.0780    1.7700    7.3780 C.2     1  UNL1       -0.0507
     14 H           7.5377    0.9935    7.9678 H       1  UNL1        0.0598
     15 C           7.8447    2.7297    6.7530 C.2     1  UNL1       -0.0620
     16 H           8.9191    2.7250    6.8431 H       1  UNL1        0.0616
     17 C           7.1998    3.7136    5.9973 C.2     1  UNL1       -0.0466
     18 H           7.7642    4.4822    5.4949 H       1  UNL1        0.0630
     19 C           5.8272    3.6918    5.9063 C.2     1  UNL1        0.0129
     20 H           5.2879    4.4341    5.3356 H       1  UNL1        0.0798
@<TRIPOS>BOND
     1    20    19    1
     2    18    17    1
     3    19    17    2
     4    19     2    1
     5    17    15    1
     6     2    12    1
     7    15    16    1
     8    15    13    2
     9    12    13    1
    10    12    11    1
    11    13    14    1
    12     1    11    1
    13     1     3    1
    14     4     3    1
    15    11     9    2
    16     3     5    1
    17     9    10    1
    18     9     7    1
    19     5     6    1
    20     5     7    2
    21     7     8    1
