@<TRIPOS>MOLECULE
3,4
 64 65 0 0 0
SMALL
GASTEIGER

@<TRIPOS>ATOM
      1 SI         -7.4741    2.0020   -3.5509 Si      1  UNL1        0.0000
      2 SI         -8.9000    2.7862   -0.8349 Si      1  UNL1        0.0000
      3 N         -10.7407    1.0662   -3.3604 N.3     1  UNL1        0.0000
      4 N         -10.7627    3.2374   -3.7154 N.3     1  UNL1        0.0000
      5 N          -8.8628    2.3530   -2.5336 N.3     1  UNL1        0.0000
      6 C         -10.2263   -0.1384   -2.7471 C.3     1  UNL1        0.0000
      7 H          -9.1852    0.0232   -2.4377 H       1  UNL1        0.0000
      8 C         -10.2645   -1.2974   -3.7486 C.3     1  UNL1        0.0000
      9 H         -11.2923   -1.4221   -4.0904 H       1  UNL1        0.0000
     10 H          -9.6499   -1.0428   -4.6148 H       1  UNL1        0.0000
     11 C          -9.7808   -2.5966   -3.1141 C.3     1  UNL1        0.0000
     12 H          -8.7410   -2.4862   -2.7961 H       1  UNL1        0.0000
     13 H          -9.8210   -3.4046   -3.8487 H       1  UNL1        0.0000
     14 C         -10.6421   -2.9456   -1.9049 C.3     1  UNL1        0.0000
     15 H         -11.6753   -3.0977   -2.2249 H       1  UNL1        0.0000
     16 H         -10.2921   -3.8758   -1.4510 H       1  UNL1        0.0000
     17 C         -10.5870   -1.8149   -0.8832 C.3     1  UNL1        0.0000
     18 H         -11.2152   -2.0574   -0.0228 H       1  UNL1        0.0000
     19 H          -9.5588   -1.7114   -0.5254 H       1  UNL1        0.0000
     20 C         -11.0460   -0.4959   -1.4985 C.3     1  UNL1        0.0000
     21 H         -12.0991   -0.5496   -1.7822 H       1  UNL1        0.0000
     22 H         -10.9425    0.3086   -0.7690 H       1  UNL1        0.0000
     23 C         -10.1183    4.5130   -3.9197 C.3     1  UNL1        0.0000
     24 H          -9.0283    4.3785   -3.8377 H       1  UNL1        0.0000
     25 C         -10.5438    5.5640   -2.8878 C.3     1  UNL1        0.0000
     26 H         -10.2605    5.2222   -1.8927 H       1  UNL1        0.0000
     27 H         -11.6287    5.6538   -2.9134 H       1  UNL1        0.0000
     28 C          -9.9043    6.9172   -3.1816 C.3     1  UNL1        0.0000
     29 H         -10.2368    7.6512   -2.4432 H       1  UNL1        0.0000
     30 H          -8.8172    6.8335   -3.0992 H       1  UNL1        0.0000
     31 C         -10.2629    7.3905   -4.5866 C.3     1  UNL1        0.0000
     32 H          -9.7904    8.3547   -4.7883 H       1  UNL1        0.0000
     33 H         -11.3443    7.5256   -4.6600 H       1  UNL1        0.0000
     34 C          -9.8100    6.3605   -5.6164 C.3     1  UNL1        0.0000
     35 H          -8.7217    6.2665   -5.5759 H       1  UNL1        0.0000
     36 H         -10.0783    6.6943   -6.6215 H       1  UNL1        0.0000
     37 C         -10.4467    5.0036   -5.3358 C.3     1  UNL1        0.0000
     38 H         -11.5312    5.0667   -5.4352 H       1  UNL1        0.0000
     39 H         -10.0955    4.2631   -6.0565 H       1  UNL1        0.0000
     40 C          -6.6217    0.3460   -3.1081 C.3     1  UNL1        0.0000
     41 H          -7.1306   -0.5071   -3.5466 H       1  UNL1        0.0000
     42 H          -6.5672    0.1838   -2.0368 H       1  UNL1        0.0000
     43 H          -5.6047    0.3461   -3.4886 H       1  UNL1        0.0000
     44 C          -6.1625    3.3713   -3.3448 C.3     1  UNL1        0.0000
     45 H          -6.5659    4.3693   -3.4777 H       1  UNL1        0.0000
     46 H          -5.3758    3.2354   -4.0797 H       1  UNL1        0.0000
     47 H          -5.7013    3.3304   -2.3647 H       1  UNL1        0.0000
     48 C          -8.0405    1.9152   -5.3686 C.3     1  UNL1        0.0000
     49 H          -8.0341    2.8937   -5.8388 H       1  UNL1        0.0000
     50 H          -9.0535    1.5285   -5.4333 H       1  UNL1        0.0000
     51 H          -7.3922    1.2681   -5.9521 H       1  UNL1        0.0000
     52 C          -8.0708    1.4119    0.2038 C.3     1  UNL1        0.0000
     53 H          -7.0095    1.3449   -0.0135 H       1  UNL1        0.0000
     54 H          -8.5075    0.4334    0.0335 H       1  UNL1        0.0000
     55 H          -8.1683    1.6346    1.2619 H       1  UNL1        0.0000
     56 C          -7.8975    4.3839   -0.5145 C.3     1  UNL1        0.0000
     57 H          -7.9633    5.0989   -1.3267 H       1  UNL1        0.0000
     58 H          -6.8477    4.1558   -0.3649 H       1  UNL1        0.0000
     59 H          -8.2477    4.8764    0.3876 H       1  UNL1        0.0000
     60 C         -10.7031    3.0166   -0.2517 C.3     1  UNL1        0.0000
     61 H         -11.4123    2.8186   -1.0665 H       1  UNL1        0.0000
     62 H         -10.8842    4.0261    0.1058 H       1  UNL1        0.0000
     63 H         -10.9417    2.3453    0.5686 H       1  UNL1        0.0000
     64 C         -10.1060    2.2220   -3.1926 C.3     1  UNL1        0.0000
@<TRIPOS>BOND
     1    36    34    1
     2    39    37    1
     3    51    48    1
     4    49    48    1
     5    34    35    1
     6    34    37    1
     7    34    31    1
     8    38    37    1
     9    50    48    1
    10    48     1    1
    11    37    23    1
    12    32    31    1
    13    33    31    1
    14    10     8    1
    15    31    28    1
    16     9     8    1
    17    46    44    1
    18    23    24    1
    19    23     4    1
    20    23    25    1
    21    13    11    1
    22     8    11    1
    23     8     6    1
    24     4    64    1
    25     1    44    1
    26     1    40    1
    27     1     5    1
    28    41    40    1
    29    43    40    1
    30    45    44    1
    31     3    64    1
    32     3     6    1
    33    44    47    1
    34    64     5    1
    35    28    30    1
    36    28    25    1
    37    28    29    1
    38    11    12    1
    39    11    14    1
    40    40    42    1
    41    27    25    1
    42    25    26    1
    43     6     7    1
    44     6    20    1
    45     5     2    1
    46    15    14    1
    47    14    16    1
    48    14    17    1
    49    21    20    1
    50    20    17    1
    51    20    22    1
    52    57    56    1
    53    61    60    1
    54    17    19    1
    55    17    18    1
    56     2    56    1
    57     2    60    1
    58     2    52    1
    59    56    58    1
    60    56    59    1
    61    60    62    1
    62    60    63    1
    63    53    52    1
    64    54    52    1
    65    52    55    1
