@<TRIPOS>MOLECULE
3,4
 64 65 0 0 0
SMALL
GASTEIGER

@<TRIPOS>ATOM
      1 SI        -17.3268    2.0021   -3.5043 Si      1  UNL1        0.0000
      2 SI        -15.9009    2.7862   -6.2204 Si      1  UNL1        0.0000
      3 N         -14.0602    1.0662   -3.6947 N.3     1  UNL1        0.0000
      4 N         -14.0383    3.2374   -3.3398 N.3     1  UNL1        0.0000
      5 N         -15.9381    2.3530   -4.5216 N.3     1  UNL1        0.0000
      6 C         -14.5746   -0.1386   -4.3079 C.3     1  UNL1        0.0000
      7 H         -15.6156    0.0231   -4.6174 H       1  UNL1        0.0000
      8 C         -14.5367   -1.2974   -3.3062 C.3     1  UNL1        0.0000
      9 H         -13.5089   -1.4221   -2.9645 H       1  UNL1        0.0000
     10 H         -15.1513   -1.0429   -2.4399 H       1  UNL1        0.0000
     11 C         -15.0202   -2.5967   -3.9408 C.3     1  UNL1        0.0000
     12 H         -16.0599   -2.4862   -4.2589 H       1  UNL1        0.0000
     13 H         -14.9801   -3.4048   -3.2061 H       1  UNL1        0.0000
     14 C         -14.1591   -2.9457   -5.1502 C.3     1  UNL1        0.0000
     15 H         -13.1260   -3.0977   -4.8300 H       1  UNL1        0.0000
     16 H         -14.5090   -3.8759   -5.6040 H       1  UNL1        0.0000
     17 C         -14.2139   -1.8147   -6.1717 C.3     1  UNL1        0.0000
     18 H         -13.5856   -2.0572   -7.0321 H       1  UNL1        0.0000
     19 H         -15.2420   -1.7113   -6.5295 H       1  UNL1        0.0000
     20 C         -13.7549   -0.4956   -5.5567 C.3     1  UNL1        0.0000
     21 H         -12.7019   -0.5494   -5.2727 H       1  UNL1        0.0000
     22 H         -13.8583    0.3089   -6.2862 H       1  UNL1        0.0000
     23 C         -14.6828    4.5130   -3.1353 C.3     1  UNL1        0.0000
     24 H         -15.7728    4.3784   -3.2174 H       1  UNL1        0.0000
     25 C         -14.2571    5.5639   -4.1671 C.3     1  UNL1        0.0000
     26 H         -14.5404    5.2222   -5.1621 H       1  UNL1        0.0000
     27 H         -13.1722    5.6538   -4.1416 H       1  UNL1        0.0000
     28 C         -14.8968    6.9172   -3.8733 C.3     1  UNL1        0.0000
     29 H         -14.5642    7.6512   -4.6117 H       1  UNL1        0.0000
     30 H         -15.9838    6.8334   -3.9558 H       1  UNL1        0.0000
     31 C         -14.5381    7.3904   -2.4684 C.3     1  UNL1        0.0000
     32 H         -15.0106    8.3546   -2.2666 H       1  UNL1        0.0000
     33 H         -13.4567    7.5255   -2.3949 H       1  UNL1        0.0000
     34 C         -14.9910    6.3605   -1.4384 C.3     1  UNL1        0.0000
     35 H         -16.0793    6.2665   -1.4790 H       1  UNL1        0.0000
     36 H         -14.7227    6.6943   -0.4334 H       1  UNL1        0.0000
     37 C         -14.3543    5.0036   -1.7193 C.3     1  UNL1        0.0000
     38 H         -13.2698    5.0667   -1.6198 H       1  UNL1        0.0000
     39 H         -14.7055    4.2631   -0.9987 H       1  UNL1        0.0000
     40 C         -18.1793    0.3461   -3.9468 C.3     1  UNL1        0.0000
     41 H         -17.6705   -0.5070   -3.5083 H       1  UNL1        0.0000
     42 H         -18.2337    0.1840   -5.0181 H       1  UNL1        0.0000
     43 H         -19.1964    0.3460   -3.5665 H       1  UNL1        0.0000
     44 C         -18.6386    3.3713   -3.7102 C.3     1  UNL1        0.0000
     45 H         -18.2350    4.3693   -3.5774 H       1  UNL1        0.0000
     46 H         -19.4254    3.2355   -2.9754 H       1  UNL1        0.0000
     47 H         -19.0996    3.3304   -4.6903 H       1  UNL1        0.0000
     48 C         -16.7608    1.9152   -1.6865 C.3     1  UNL1        0.0000
     49 H         -16.7671    2.8937   -1.2163 H       1  UNL1        0.0000
     50 H         -15.7478    1.5285   -1.6219 H       1  UNL1        0.0000
     51 H         -17.4089    1.2682   -1.1027 H       1  UNL1        0.0000
     52 C         -16.7303    1.4118   -7.2589 C.3     1  UNL1        0.0000
     53 H         -17.7916    1.3448   -7.0416 H       1  UNL1        0.0000
     54 H         -16.2935    0.4333   -7.0885 H       1  UNL1        0.0000
     55 H         -16.6326    1.6347   -8.3169 H       1  UNL1        0.0000
     56 C         -16.9035    4.3839   -6.5404 C.3     1  UNL1        0.0000
     57 H         -16.8378    5.0989   -5.7282 H       1  UNL1        0.0000
     58 H         -17.9533    4.1558   -6.6902 H       1  UNL1        0.0000
     59 H         -16.5531    4.8763   -7.4425 H       1  UNL1        0.0000
     60 C         -14.0978    3.0166   -6.8032 C.3     1  UNL1        0.0000
     61 H         -13.3885    2.8194   -5.9884 H       1  UNL1        0.0000
     62 H         -13.9168    4.0259   -7.1615 H       1  UNL1        0.0000
     63 H         -13.8591    2.3448   -7.6230 H       1  UNL1        0.0000
     64 C         -14.6949    2.2220   -3.8626 C.3     1  UNL1        0.0000
@<TRIPOS>BOND
     1    55    52    1
     2    63    60    1
     3    59    56    1
     4    52    54    1
     5    52    53    1
     6    52     2    1
     7    62    60    1
     8    18    17    1
     9    60     2    1
    10    60    61    1
    11    58    56    1
    12    56     2    1
    13    56    57    1
    14    19    17    1
    15    22    20    1
    16     2     5    1
    17    17    20    1
    18    17    14    1
    19    16    14    1
    20    20    21    1
    21    20     6    1
    22    26    25    1
    23    14    15    1
    24    14    11    1
    25    42    40    1
    26    47    44    1
    27     7     6    1
    28    29    28    1
    29     5    64    1
    30     5     1    1
    31     6     3    1
    32     6     8    1
    33    12    11    1
    34    25    27    1
    35    25    28    1
    36    25    23    1
    37    30    28    1
    38    40    43    1
    39    40    41    1
    40    40     1    1
    41    11     8    1
    42    11    13    1
    43    28    31    1
    44    64     3    1
    45    64     4    1
    46    44    45    1
    47    44     1    1
    48    44    46    1
    49     1    48    1
    50     4    23    1
    51     8     9    1
    52     8    10    1
    53    24    23    1
    54    23    37    1
    55    31    33    1
    56    31    32    1
    57    31    34    1
    58    37    38    1
    59    37    34    1
    60    37    39    1
    61    48    50    1
    62    48    49    1
    63    48    51    1
    64    35    34    1
    65    34    36    1
