@<TRIPOS>MOLECULE
3,4
 54 55 0 0 0
SMALL
GASTEIGER

@<TRIPOS>ATOM
      1 SI          0.5002    3.6850    3.3162 Si      1  UNL1        0.0000
      2 SI          6.5193    3.2489    2.4073 Si      1  UNL1        0.0000
      3 N           2.1827    4.0924    3.5598 N.3     1  UNL1        0.0000
      4 N           5.0596    3.6763    3.2507 N.pl3   1  UNL1        0.0000
      5 C           2.6219    5.0636    4.3405 C.3     1  UNL1        0.0000
      6 C           3.9457    5.2364    4.7108 C.2     1  UNL1        0.0000
      7 H           4.1435    5.9948    5.4565 H       1  UNL1        0.0000
      8 C           5.0598    4.5156    4.2533 C.2     1  UNL1        0.0000
      9 C           1.6756    6.0358    4.9440 C.ar    1  UNL1        0.0000
     10 C           1.0364    6.9831    4.1549 C.ar    1  UNL1        0.0000
     11 H           1.2415    7.0152    3.0959 H       1  UNL1        0.0000
     12 C           0.1652    7.8945    4.7248 C.ar    1  UNL1        0.0000
     13 H          -0.3255    8.6304    4.1043 H       1  UNL1        0.0000
     14 C          -0.0747    7.8685    6.0882 C.ar    1  UNL1        0.0000
     15 H          -0.7593    8.5765    6.5316 H       1  UNL1        0.0000
     16 C           0.5745    6.9380    6.8831 C.ar    1  UNL1        0.0000
     17 H           0.3969    6.9213    7.9486 H       1  UNL1        0.0000
     18 C           1.4515    6.0316    6.3162 C.ar    1  UNL1        0.0000
     19 H           1.9608    5.3056    6.9327 H       1  UNL1        0.0000
     20 C           6.2916    4.7927    5.0412 C.ar    1  UNL1        0.0000
     21 C           6.9822    5.9880    4.8907 C.ar    1  UNL1        0.0000
     22 H           6.6276    6.7198    4.1794 H       1  UNL1        0.0000
     23 C           8.1165    6.2370    5.6432 C.ar    1  UNL1        0.0000
     24 H           8.6561    7.1642    5.5132 H       1  UNL1        0.0000
     25 C           8.5569    5.3036    6.5665 C.ar    1  UNL1        0.0000
     26 H           9.4403    5.5008    7.1559 H       1  UNL1        0.0000
     27 C           7.8573    4.1204    6.7369 C.ar    1  UNL1        0.0000
     28 H           8.1929    3.3955    7.4643 H       1  UNL1        0.0000
     29 C           6.7304    3.8644    5.9769 C.ar    1  UNL1        0.0000
     30 H           6.1783    2.9452    6.1027 H       1  UNL1        0.0000
     31 C          -0.5437    3.7749    4.9215 C.3     1  UNL1        0.0000
     32 H          -0.8808    4.7848    5.1294 H       1  UNL1        0.0000
     33 H           0.0149    3.4343    5.7872 H       1  UNL1        0.0000
     34 H          -1.4251    3.1471    4.8336 H       1  UNL1        0.0000
     35 C          -0.3761    4.7689    2.0009 C.3     1  UNL1        0.0000
     36 H           0.2703    4.9681    1.1531 H       1  UNL1        0.0000
     37 H          -0.7046    5.7202    2.4062 H       1  UNL1        0.0000
     38 H          -1.2573    4.2565    1.6272 H       1  UNL1        0.0000
     39 C           0.4483    1.8929    2.6911 C.3     1  UNL1        0.0000
     40 H           0.9879    1.7879    1.7575 H       1  UNL1        0.0000
     41 H          -0.5773    1.5851    2.5183 H       1  UNL1        0.0000
     42 H           0.8906    1.2045    3.3998 H       1  UNL1        0.0000
     43 C           7.0401    4.7865    1.3848 C.3     1  UNL1        0.0000
     44 H           7.4110    5.5738    2.0339 H       1  UNL1        0.0000
     45 H           6.2134    5.1908    0.8133 H       1  UNL1        0.0000
     46 H           7.8364    4.5396    0.6894 H       1  UNL1        0.0000
     47 C           8.1134    2.7880    3.3799 C.3     1  UNL1        0.0000
     48 H           8.6021    3.6667    3.7885 H       1  UNL1        0.0000
     49 H           8.8210    2.3032    2.7125 H       1  UNL1        0.0000
     50 H           7.9318    2.1095    4.2064 H       1  UNL1        0.0000
     51 C           6.1777    1.7920    1.2457 C.3     1  UNL1        0.0000
     52 H           6.2445    0.8435    1.7628 H       1  UNL1        0.0000
     53 H           6.9015    1.7744    0.4378 H       1  UNL1        0.0000
     54 H           5.1873    1.8636    0.8211 H       1  UNL1        0.0000
@<TRIPOS>BOND
     1    53    51    1
     2    46    43    1
     3    45    43    1
     4    54    51    1
     5    36    35    1
     6    51    52    1
     7    51     2    1
     8    43    44    1
     9    43     2    1
    10    38    35    1
    11    40    39    1
    12    35    37    1
    13    35     1    1
    14     2     4    1
    15     2    47    1
    16    41    39    1
    17    39     1    1
    18    39    42    1
    19    49    47    1
    20    11    10    1
    21     4     8    1
    22     1     3    1
    23     1    31    1
    24    47    48    1
    25    47    50    1
    26     3     5    1
    27    13    12    1
    28    10    12   ar
    29    10     9   ar
    30    22    21    1
    31     8     6    2
    32     8    20    1
    33     5     6    1
    34     5     9    1
    35     6     7    1
    36    12    14   ar
    37    34    31    1
    38    21    20   ar
    39    21    23   ar
    40    31    32    1
    41    31    33    1
    42     9    18   ar
    43    20    29   ar
    44    24    23    1
    45    23    25   ar
    46    29    30    1
    47    29    27   ar
    48    14    15    1
    49    14    16   ar
    50    18    16   ar
    51    18    19    1
    52    25    27   ar
    53    25    26    1
    54    27    28    1
    55    16    17    1
