@<TRIPOS>MOLECULE
3,4
 54 55 0 0 0
SMALL
GASTEIGER

@<TRIPOS>ATOM
      1 SI          3.1863    4.1811   -0.3251 Si      1  UNL1        0.0000
      2 SI          3.7131    0.4971    4.4278 Si      1  UNL1        0.0000
      3 N           3.0452    2.6586    0.5175 N.3     1  UNL1        0.0000
      4 N           3.4471    0.9098    2.7532 N.pl3   1  UNL1        0.0000
      5 C           2.8028    1.5169   -0.0946 C.3     1  UNL1        0.0000
      6 C           2.9214    0.2676    0.4972 C.2     1  UNL1        0.0000
      7 H           2.7689   -0.5884   -0.1455 H       1  UNL1        0.0000
      8 C           3.3032    0.0049    1.8170 C.2     1  UNL1        0.0000
      9 C           2.3981    1.4799   -1.5259 C.ar    1  UNL1        0.0000
     10 C           3.3483    1.3066   -2.5234 C.ar    1  UNL1        0.0000
     11 H           4.3887    1.2110   -2.2512 H       1  UNL1        0.0000
     12 C           2.9619    1.2489   -3.8508 C.ar    1  UNL1        0.0000
     13 H           3.7065    1.1195   -4.6230 H       1  UNL1        0.0000
     14 C           1.6232    1.3496   -4.1906 C.ar    1  UNL1        0.0000
     15 H           1.3227    1.3043   -5.2271 H       1  UNL1        0.0000
     16 C           0.6698    1.4966   -3.1970 C.ar    1  UNL1        0.0000
     17 H          -0.3765    1.5613   -3.4580 H       1  UNL1        0.0000
     18 C           1.0547    1.5582   -1.8696 C.ar    1  UNL1        0.0000
     19 H           0.3137    1.6652   -1.0909 H       1  UNL1        0.0000
     20 C           3.5293   -1.4424    2.0704 C.ar    1  UNL1        0.0000
     21 C           4.8029   -1.9343    2.3214 C.ar    1  UNL1        0.0000
     22 H           5.6384   -1.2526    2.3362 H       1  UNL1        0.0000
     23 C           5.0020   -3.2875    2.5299 C.ar    1  UNL1        0.0000
     24 H           5.9974   -3.6614    2.7223 H       1  UNL1        0.0000
     25 C           3.9306   -4.1634    2.4883 C.ar    1  UNL1        0.0000
     26 H           4.0855   -5.2188    2.6577 H       1  UNL1        0.0000
     27 C           2.6601   -3.6820    2.2180 C.ar    1  UNL1        0.0000
     28 H           1.8227   -4.3634    2.1749 H       1  UNL1        0.0000
     29 C           2.4618   -2.3312    1.9994 C.ar    1  UNL1        0.0000
     30 H           1.4727   -1.9537    1.7849 H       1  UNL1        0.0000
     31 C           3.3739    5.5336    0.9929 C.3     1  UNL1        0.0000
     32 H           2.4214    5.8000    1.4337 H       1  UNL1        0.0000
     33 H           3.7937    6.4328    0.5552 H       1  UNL1        0.0000
     34 H           4.0274    5.2072    1.7935 H       1  UNL1        0.0000
     35 C           1.6720    4.6425   -1.4117 C.3     1  UNL1        0.0000
     36 H           1.7584    4.2297   -2.4113 H       1  UNL1        0.0000
     37 H           1.5951    5.7213   -1.5100 H       1  UNL1        0.0000
     38 H           0.7373    4.2835   -0.9941 H       1  UNL1        0.0000
     39 C           4.7170    4.1958   -1.4773 C.3     1  UNL1        0.0000
     40 H           4.4927    3.7447   -2.4387 H       1  UNL1        0.0000
     41 H           5.5471    3.6530   -1.0386 H       1  UNL1        0.0000
     42 H           5.0496    5.2118   -1.6663 H       1  UNL1        0.0000
     43 C           3.1068    1.9019    5.5512 C.3     1  UNL1        0.0000
     44 H           3.6347    2.8216    5.3464 H       1  UNL1        0.0000
     45 H           3.2801    1.6427    6.5910 H       1  UNL1        0.0000
     46 H           2.0482    2.0939    5.4297 H       1  UNL1        0.0000
     47 C           5.5440    0.1527    4.8693 C.3     1  UNL1        0.0000
     48 H           5.8154   -0.8866    4.7144 H       1  UNL1        0.0000
     49 H           5.7316    0.3819    5.9139 H       1  UNL1        0.0000
     50 H           6.2049    0.7686    4.2706 H       1  UNL1        0.0000
     51 C           2.6869   -1.0284    4.9874 C.3     1  UNL1        0.0000
     52 H           3.1831   -1.9667    4.7657 H       1  UNL1        0.0000
     53 H           1.7137   -1.0550    4.5073 H       1  UNL1        0.0000
     54 H           2.5189   -0.9941    6.0597 H       1  UNL1        0.0000
@<TRIPOS>BOND
     1    15    14    1
     2    13    12    1
     3    14    12   ar
     4    14    16   ar
     5    12    10   ar
     6    17    16    1
     7    16    18   ar
     8    10    11    1
     9    10     9   ar
    10    40    39    1
    11    36    35    1
    12    18     9   ar
    13    18    19    1
    14    42    39    1
    15     9     5    1
    16    37    35    1
    17    39    41    1
    18    39     1    1
    19    35    38    1
    20    35     1    1
    21     1     3    1
    22     1    31    1
    23     7     6    1
    24     5     6    1
    25     5     3    1
    26     6     8    2
    27    33    31    1
    28    31    32    1
    29    31    34    1
    30    30    29    1
    31     8    20    1
    32     8     4    1
    33    29    20   ar
    34    29    27   ar
    35    20    21   ar
    36    28    27    1
    37    27    25   ar
    38    21    22    1
    39    21    23   ar
    40    25    23   ar
    41    25    26    1
    42    23    24    1
    43     4     2    1
    44    50    47    1
    45     2    47    1
    46     2    51    1
    47     2    43    1
    48    53    51    1
    49    48    47    1
    50    52    51    1
    51    47    49    1
    52    51    54    1
    53    44    43    1
    54    46    43    1
    55    43    45    1
