@<TRIPOS>MOLECULE
1,2
 72 73 0 0 0
SMALL
GASTEIGER

@<TRIPOS>ATOM
      1 N           0.7571   35.5177    0.1274 N.pl3   1  UNL1       -0.2371
      2 N           0.9687   32.6047   -0.8619 N.pl3   1  UNL1       -0.2192
      3 C          -0.3621   36.9168   -1.5573 C.3     1  UNL1       -0.0359
      4 H          -1.1482   36.7331   -2.2856 H       1  UNL1        0.0255
      5 H          -0.7751   37.4713   -0.7176 H       1  UNL1        0.0255
      6 H           0.4002   37.5365   -2.0293 H       1  UNL1        0.0255
      7 C           0.2687   35.6201   -1.0976 C.3     1  UNL1        0.0968
      8 C           0.2618   34.5889   -2.0462 C.2     1  UNL1       -0.0383
      9 H          -0.1103   34.8870   -3.0183 H       1  UNL1        0.0610
     10 C           0.4784   33.2082   -1.9285 C.2     1  UNL1        0.0264
     11 C           0.0751   32.4049   -3.1482 C.3     1  UNL1       -0.0248
     12 H           0.6621   32.7289   -4.0069 H       1  UNL1        0.0290
     13 H           0.2391   31.3417   -2.9911 H       1  UNL1        0.0290
     14 H          -0.9745   32.5713   -3.3835 H       1  UNL1        0.0290
     15 C           0.4957   36.5453    1.0745 C.ar    1  UNL1        0.0557
     16 C           1.2630   37.7191    1.1357 C.ar    1  UNL1       -0.0219
     17 C           0.9395   38.6877    2.0755 C.ar    1  UNL1       -0.0565
     18 H           1.5289   39.5893    2.1345 H       1  UNL1        0.0621
     19 C          -0.1307   38.5263    2.9325 C.ar    1  UNL1       -0.0611
     20 H          -0.3850   39.3029    3.6390 H       1  UNL1        0.0618
     21 C          -0.8655   37.3569    2.8907 C.ar    1  UNL1       -0.0565
     22 H          -1.6923   37.2315    3.5718 H       1  UNL1        0.0621
     23 C          -0.5563   36.3511    1.9878 C.ar    1  UNL1       -0.0219
     24 C          -1.8073   34.6375    3.3599 C.3     1  UNL1       -0.0586
     25 H          -2.1808   33.6172    3.3325 H       1  UNL1        0.0235
     26 H          -0.9731   34.6779    4.0576 H       1  UNL1        0.0235
     27 H          -2.6059   35.2715    3.7377 H       1  UNL1        0.0235
     28 C          -1.3655   35.0734    1.9613 C.3     1  UNL1       -0.0197
     29 H          -0.7312   34.2797    1.5393 H       1  UNL1        0.0344
     30 C          -2.5829   35.2525    1.0487 C.3     1  UNL1       -0.0586
     31 H          -3.2061   34.3617    1.0657 H       1  UNL1        0.0235
     32 H          -3.1814   36.0992    1.3804 H       1  UNL1        0.0235
     33 H          -2.2682   35.4313    0.0237 H       1  UNL1        0.0235
     34 C           3.7462   37.7892    1.0240 C.3     1  UNL1       -0.0586
     35 H           4.6012   37.8640    0.3554 H       1  UNL1        0.0235
     36 H           3.8242   38.5666    1.7807 H       1  UNL1        0.0235
     37 H           3.7729   36.8215    1.5287 H       1  UNL1        0.0235
     38 C           2.4483   37.9414    0.2263 C.3     1  UNL1       -0.0197
     39 H           2.4488   37.1785   -0.5609 H       1  UNL1        0.0344
     40 C           2.4020   39.3184   -0.4381 C.3     1  UNL1       -0.0586
     41 H           3.2094   39.4053   -1.1588 H       1  UNL1        0.0235
     42 H           1.4573   39.4683   -0.9561 H       1  UNL1        0.0235
     43 H           2.5180   40.1126    0.2947 H       1  UNL1        0.0235
     44 C           0.8252   31.2026   -0.7080 C.ar    1  UNL1        0.0601
     45 C          -0.4189   30.6788   -0.3090 C.ar    1  UNL1       -0.0216
     46 C          -0.5523   29.3127   -0.1112 C.ar    1  UNL1       -0.0565
     47 H          -1.5095   28.9092    0.1824 H       1  UNL1        0.0621
     48 C           0.5154   28.4549   -0.2824 C.ar    1  UNL1       -0.0611
     49 H           0.3951   27.3938   -0.1227 H       1  UNL1        0.0618
     50 C           1.7382   28.9702   -0.6614 C.ar    1  UNL1       -0.0565
     51 H           2.5726   28.2987   -0.7963 H       1  UNL1        0.0621
     52 C           1.9114   30.3286   -0.8877 C.ar    1  UNL1       -0.0216
     53 C           3.6112   30.1909   -2.7114 C.3     1  UNL1       -0.0586
     54 H           4.5890   30.5325   -3.0448 H       1  UNL1        0.0235
     55 H           3.6382   29.1060   -2.6443 H       1  UNL1        0.0235
     56 H           2.8730   30.4674   -3.4609 H       1  UNL1        0.0235
     57 C           3.2641   30.8158   -1.3565 C.3     1  UNL1       -0.0197
     58 H           3.2271   31.9061   -1.4784 H       1  UNL1        0.0344
     59 C           4.3518   30.4973   -0.3270 C.3     1  UNL1       -0.0586
     60 H           5.3069   30.8996   -0.6599 H       1  UNL1        0.0235
     61 H           4.0998   30.9412    0.6360 H       1  UNL1        0.0235
     62 H           4.4638   29.4235   -0.1962 H       1  UNL1        0.0235
     63 C          -2.7782   31.2326   -0.9802 C.3     1  UNL1       -0.0586
     64 H          -3.5909   31.9415   -0.8345 H       1  UNL1        0.0235
     65 H          -2.4641   31.2775   -2.0198 H       1  UNL1        0.0235
     66 H          -3.1584   30.2330   -0.7836 H       1  UNL1        0.0235
     67 C          -1.6128   31.5685   -0.0467 C.3     1  UNL1       -0.0197
     68 H          -1.3246   32.6095   -0.2201 H       1  UNL1        0.0344
     69 C          -2.0454   31.4283    1.4148 C.3     1  UNL1       -0.0586
     70 H          -2.8797   32.0934    1.6258 H       1  UNL1        0.0235
     71 H          -2.3628   30.4114    1.6321 H       1  UNL1        0.0235
     72 H          -1.2170   31.6752    2.0753 H       1  UNL1        0.0235
@<TRIPOS>BOND
     1    12    11    1
     2    56    53    1
     3    14    11    1
     4    11    13    1
     5    11    10    1
     6    54    53    1
     7     9     8    1
     8    53    55    1
     9    53    57    1
    10     4     3    1
    11     8    10    2
    12     8     7    1
    13     6     3    1
    14    65    63    1
    15    10     2    1
    16     3     7    1
    17     3     5    1
    18    58    57    1
    19    57    52    1
    20    57    59    1
    21    41    40    1
    22     7     1    1
    23    63    64    1
    24    63    66    1
    25    63    67    1
    26    42    40    1
    27    52    44   ar
    28    52    50   ar
    29     2    44    1
    30    51    50    1
    31    44    45   ar
    32    50    48   ar
    33    60    59    1
    34    39    38    1
    35    40    38    1
    36    40    43    1
    37    59    62    1
    38    59    61    1
    39    45    46   ar
    40    45    67    1
    41    48    49    1
    42    48    46   ar
    43    68    67    1
    44    46    47    1
    45    67    69    1
    46    33    30    1
    47     1    15    1
    48    38    34    1
    49    38    16    1
    50    35    34    1
    51    34    37    1
    52    34    36    1
    53    30    31    1
    54    30    32    1
    55    30    28    1
    56    15    16   ar
    57    15    23   ar
    58    16    17   ar
    59    69    70    1
    60    69    71    1
    61    69    72    1
    62    29    28    1
    63    28    23    1
    64    28    24    1
    65    23    21   ar
    66    17    18    1
    67    17    19   ar
    68    21    19   ar
    69    21    22    1
    70    19    20    1
    71    25    24    1
    72    24    27    1
    73    24    26    1
