@<TRIPOS>MOLECULE
1,2
 72 74 0 0 0
SMALL
GASTEIGER

@<TRIPOS>ATOM
      1 N           4.3625    2.5030    4.4689 N.pl3   1  UNL1       -0.2142
      2 N           4.3957    4.6297    3.7564 N.pl3   1  UNL1       -0.2142
      3 C           4.3001    1.1141    4.3558 C.ar    1  UNL1        0.0576
      4 C           3.2302    0.4697    3.7052 C.ar    1  UNL1       -0.0219
      5 C           3.1671   -0.9160    3.7172 C.ar    1  UNL1       -0.0565
      6 C           4.1230   -1.6760    4.3616 C.ar    1  UNL1       -0.0611
      7 C           5.1693   -1.0435    5.0071 C.ar    1  UNL1       -0.0565
      8 C           5.2788    0.3366    5.0106 C.ar    1  UNL1       -0.0219
      9 C           2.1330    1.2504    3.0179 C.3     1  UNL1       -0.0197
     10 C           0.7641    0.9267    3.6237 C.3     1  UNL1       -0.0586
     11 C           2.1166    0.9658    1.5137 C.3     1  UNL1       -0.0586
     12 C           6.4485    0.9944    5.7113 C.3     1  UNL1       -0.0197
     13 C           6.3806    0.7291    7.2173 C.3     1  UNL1       -0.0586
     14 C           7.7943    0.5182    5.1571 C.3     1  UNL1       -0.0586
     15 C           4.5745    3.3455    3.4734 C.3     1  UNL1        0.2052
     16 C           4.9722    2.8826    2.1138 C.ar    1  UNL1        0.0011
     17 C           5.8299    1.7968    1.9595 C.ar    1  UNL1       -0.0547
     18 C           6.1909    1.3518    0.7010 C.ar    1  UNL1       -0.0614
     19 C           5.7061    1.9871   -0.4293 C.ar    1  UNL1       -0.0617
     20 C           4.8588    3.0728   -0.2880 C.ar    1  UNL1       -0.0614
     21 C           4.4941    3.5170    0.9698 C.ar    1  UNL1       -0.0547
     22 C           4.8165    5.6640    2.9262 C.ar    1  UNL1        0.0576
     23 C           6.1682    5.8205    2.5593 C.ar    1  UNL1       -0.0219
     24 C           6.5239    6.8724    1.7293 C.ar    1  UNL1       -0.0565
     25 C           5.5841    7.7700    1.2634 C.ar    1  UNL1       -0.0611
     26 C           4.2705    7.6591    1.6824 C.ar    1  UNL1       -0.0565
     27 C           3.8714    6.6360    2.5265 C.ar    1  UNL1       -0.0219
     28 C           7.2560    4.9288    3.1166 C.3     1  UNL1       -0.0197
     29 C           8.1324    4.3275    2.0161 C.3     1  UNL1       -0.0586
     30 C           8.1189    5.7281    4.0994 C.3     1  UNL1       -0.0586
     31 C           2.4445    6.5492    3.0288 C.3     1  UNL1       -0.0197
     32 C           1.6162    5.5630    2.1986 C.3     1  UNL1       -0.0586
     33 C           1.7362    7.9047    3.0584 C.3     1  UNL1       -0.0586
     34 H           2.3527   -1.4137    3.2119 H       1  UNL1        0.0621
     35 H           4.0555   -2.7540    4.3593 H       1  UNL1        0.0618
     36 H           5.9187   -1.6404    5.5070 H       1  UNL1        0.0621
     37 H           2.3211    2.3184    3.1698 H       1  UNL1        0.0344
     38 H           0.4891   -0.1085    3.4361 H       1  UNL1        0.0235
     39 H           0.0021    1.5673    3.1846 H       1  UNL1        0.0235
     40 H           0.7724    1.0896    4.6987 H       1  UNL1        0.0235
     41 H           3.0934    1.1494    1.0740 H       1  UNL1        0.0235
     42 H           1.3884    1.6049    1.0179 H       1  UNL1        0.0235
     43 H           1.8473   -0.0707    1.3236 H       1  UNL1        0.0235
     44 H           6.3731    2.0765    5.5505 H       1  UNL1        0.0344
     45 H           5.4476    1.1189    7.6142 H       1  UNL1        0.0235
     46 H           7.2104    1.2171    7.7261 H       1  UNL1        0.0235
     47 H           6.4359   -0.3383    7.4234 H       1  UNL1        0.0235
     48 H           8.6059    1.0489    5.6517 H       1  UNL1        0.0235
     49 H           7.8706    0.7045    4.0880 H       1  UNL1        0.0235
     50 H           7.9321   -0.5474    5.3259 H       1  UNL1        0.0235
     51 H           6.2255    1.3008    2.8290 H       1  UNL1        0.0622
     52 H           6.8567    0.5065    0.6046 H       1  UNL1        0.0618
     53 H           5.9881    1.6403   -1.4126 H       1  UNL1        0.0618
     54 H           4.4761    3.5783   -1.1627 H       1  UNL1        0.0618
     55 H           3.8289    4.3593    1.0561 H       1  UNL1        0.0622
     56 H           7.5564    6.9930    1.4372 H       1  UNL1        0.0621
     57 H           5.8750    8.5666    0.5945 H       1  UNL1        0.0618
     58 H           3.5515    8.3854    1.3370 H       1  UNL1        0.0621
     59 H           6.7954    4.1085    3.6743 H       1  UNL1        0.0344
     60 H           8.7441    5.0927    1.5444 H       1  UNL1        0.0235
     61 H           7.5213    3.8571    1.2501 H       1  UNL1        0.0235
     62 H           8.7973    3.5761    2.4374 H       1  UNL1        0.0235
     63 H           8.6061    6.5607    3.5967 H       1  UNL1        0.0235
     64 H           8.8860    5.0886    4.5318 H       1  UNL1        0.0235
     65 H           7.5049    6.1278    4.9041 H       1  UNL1        0.0235
     66 H           2.4859    6.1647    4.0608 H       1  UNL1        0.0344
     67 H           0.5825    5.5648    2.5402 H       1  UNL1        0.0235
     68 H           2.0059    4.5532    2.3004 H       1  UNL1        0.0235
     69 H           1.6320    5.8435    1.1460 H       1  UNL1        0.0235
     70 H           2.3607    8.6617    3.5287 H       1  UNL1        0.0235
     71 H           0.8091    7.8197    3.6221 H       1  UNL1        0.0235
     72 H           1.4821    8.2385    2.0546 H       1  UNL1        0.0235
@<TRIPOS>BOND
     1    53    19    1
     2    54    20    1
     3    19    20   ar
     4    19    18   ar
     5    20    21   ar
     6    57    25    1
     7    52    18    1
     8    18    17   ar
     9    21    55    1
    10    21    16   ar
    11    42    11    1
    12    41    11    1
    13    69    32    1
    14    61    29    1
    15    25    26   ar
    16    25    24   ar
    17    43    11    1
    18    58    26    1
    19    56    24    1
    20    11     9    1
    21    60    29    1
    22    26    27   ar
    23    24    23   ar
    24    17    16   ar
    25    17    51    1
    26    29    62    1
    27    29    28    1
    28    72    33    1
    29    16    15    1
    30    32    68    1
    31    32    67    1
    32    32    31    1
    33    27    22   ar
    34    27    31    1
    35    23    22   ar
    36    23    28    1
    37    22     2    1
    38     9    37    1
    39     9    10    1
    40     9     4    1
    41    31    33    1
    42    31    66    1
    43    33    70    1
    44    33    71    1
    45    28    59    1
    46    28    30    1
    47    39    10    1
    48    34     5    1
    49    38    10    1
    50    15     2    1
    51    15     1    1
    52    63    30    1
    53    10    40    1
    54     4     5   ar
    55     4     3   ar
    56     5     6   ar
    57    49    14    1
    58    30    64    1
    59    30    65    1
    60     3     1    1
    61     3     8   ar
    62    35     6    1
    63     6     7   ar
    64     7     8   ar
    65     7    36    1
    66     8    12    1
    67    14    50    1
    68    14    48    1
    69    14    12    1
    70    44    12    1
    71    12    13    1
    72    13    47    1
    73    13    45    1
    74    13    46    1
