@<TRIPOS>MOLECULE
1,2
 32 32 0 0 0
SMALL
GASTEIGER

@<TRIPOS>ATOM
      1 N           5.8499    4.4966    7.1950 N.pl3   1  UNL1       -0.2488
      2 N           6.5139    4.2395    9.6751 N.pl3   1  UNL1       -0.2488
      3 C           6.0980    5.6875    7.8474 C.ar    1  UNL1        0.0702
      4 C           6.4681    5.5443    9.2277 C.ar    1  UNL1        0.0702
      5 C           6.7528    6.6904    9.9728 C.ar    1  UNL1       -0.0373
      6 C           6.6665    7.9459    9.3965 C.ar    1  UNL1       -0.0598
      7 C           6.3092    8.0839    8.0657 C.ar    1  UNL1       -0.0598
      8 C           6.0339    6.9680    7.2944 C.ar    1  UNL1       -0.0373
      9 C           5.2025    4.5317    5.9032 C.3     1  UNL1        0.0312
     10 C           3.7390    4.9968    6.0081 C.3     1  UNL1       -0.0384
     11 C           2.9181    4.0484    6.8727 C.3     1  UNL1       -0.0638
     12 C           6.6081    3.9926   11.0961 C.3     1  UNL1        0.0312
     13 C           5.3169    4.3894   11.8341 C.3     1  UNL1       -0.0384
     14 C           4.1271    3.5739   11.3441 C.3     1  UNL1       -0.0638
     15 H           7.0619    6.6084   11.0046 H       1  UNL1        0.0637
     16 H           6.8878    8.8198    9.9910 H       1  UNL1        0.0618
     17 H           6.2512    9.0656    7.6197 H       1  UNL1        0.0618
     18 H           5.7867    7.1009    6.2513 H       1  UNL1        0.0637
     19 H           5.2232    3.5165    5.4830 H       1  UNL1        0.0482
     20 H           5.7496    5.1927    5.2109 H       1  UNL1        0.0482
     21 H           3.3116    5.0589    5.0051 H       1  UNL1        0.0278
     22 H           3.7171    5.9929    6.4533 H       1  UNL1        0.0278
     23 H           1.9268    4.4568    7.0541 H       1  UNL1        0.0230
     24 H           3.4201    3.9044    7.8316 H       1  UNL1        0.0230
     25 H           2.8050    3.0828    6.3830 H       1  UNL1        0.0230
     26 H           7.4623    4.5380   11.5302 H       1  UNL1        0.0482
     27 H           6.7864    2.9184   11.2452 H       1  UNL1        0.0482
     28 H           5.4593    4.2421   12.9068 H       1  UNL1        0.0278
     29 H           5.1203    5.4478   11.6556 H       1  UNL1        0.0278
     30 H           3.2013    3.9539   11.7692 H       1  UNL1        0.0230
     31 H           4.2320    2.5296   11.6332 H       1  UNL1        0.0230
     32 H           4.0664    3.6372   10.2558 H       1  UNL1        0.0230
@<TRIPOS>BOND
     1    21    10    1
     2    20     9    1
     3    19     9    1
     4     9    10    1
     5     9     1    1
     6    10    22    1
     7    10    11    1
     8    18     8    1
     9    25    11    1
    10    11    23    1
    11    11    24    1
    12     1     3    1
    13     8     3   ar
    14     8     7   ar
    15    17     7    1
    16     3     4   ar
    17     7     6   ar
    18     4     2    1
    19     4     5   ar
    20     6     5   ar
    21     6    16    1
    22     2    12    1
    23     5    15    1
    24    32    14    1
    25    12    27    1
    26    12    26    1
    27    12    13    1
    28    14    31    1
    29    14    30    1
    30    14    13    1
    31    29    13    1
    32    13    28    1
