@<TRIPOS>MOLECULE
2,3
 47 48 0 0 0
SMALL
GASTEIGER

@<TRIPOS>ATOM
      1 SI          5.7758    6.9100   10.1982 Si      1  UNL1        0.0000
      2 N           6.7847    5.8795    9.2410 N.3     1  UNL1        0.0000
      3 N           8.4339    5.1460    7.9401 N.3     1  UNL1        0.0000
      4 C           8.1908    6.0328    9.0741 C.3     1  UNL1        0.0000
      5 H           8.4832    7.0686    8.8101 H       1  UNL1        0.0000
      6 C           8.9757    5.5667   10.2884 C.ar    1  UNL1        0.0000
      7 C           8.5650    4.4200   10.9637 C.ar    1  UNL1        0.0000
      8 H           7.6670    3.8890   10.6308 H       1  UNL1        0.0000
      9 C           9.2737    3.9695   12.0602 C.ar    1  UNL1        0.0000
     10 H           8.9467    3.0798   12.5779 H       1  UNL1        0.0000
     11 C          10.4040    4.6475   12.5105 C.ar    1  UNL1        0.0000
     12 C          10.8038    5.7913   11.8342 C.ar    1  UNL1        0.0000
     13 H          11.6753    6.3345   12.1701 H       1  UNL1        0.0000
     14 C          10.0992    6.2483   10.7326 C.ar    1  UNL1        0.0000
     15 H          10.4235    7.1451   10.2225 H       1  UNL1        0.0000
     16 C          11.1510    4.1521   13.7099 C.3     1  UNL1        0.0000
     17 H          10.5525    4.2975   14.6087 H       1  UNL1        0.0000
     18 H          12.0910    4.6834   13.8331 H       1  UNL1        0.0000
     19 H          11.3567    3.0875   13.6178 H       1  UNL1        0.0000
     20 C           9.5984    4.9207    7.4765 C.3     1  UNL1        0.0000
     21 H          10.4784    5.3927    7.9318 H       1  UNL1        0.0000
     22 C           9.8371    4.0380    6.3605 C.ar    1  UNL1        0.0000
     23 C          11.1344    3.5928    6.0902 C.ar    1  UNL1        0.0000
     24 H          11.9538    3.9305    6.7086 H       1  UNL1        0.0000
     25 C          11.3667    2.7054    5.0606 C.ar    1  UNL1        0.0000
     26 H          12.3715    2.3571    4.8700 H       1  UNL1        0.0000
     27 C          10.3205    2.2463    4.2648 C.ar    1  UNL1        0.0000
     28 C           9.0314    2.7114    4.5203 C.ar    1  UNL1        0.0000
     29 H           8.2134    2.3701    3.9033 H       1  UNL1        0.0000
     30 C           8.7848    3.5925    5.5501 C.ar    1  UNL1        0.0000
     31 H           7.7811    3.9607    5.7304 H       1  UNL1        0.0000
     32 C          10.5735    1.2968    3.1386 C.3     1  UNL1        0.0000
     33 H          10.6708    1.8508    2.2042 H       1  UNL1        0.0000
     34 H           9.7451    0.6012    3.0280 H       1  UNL1        0.0000
     35 H          11.4915    0.7366    3.2969 H       1  UNL1        0.0000
     36 C           4.1056    6.8943    9.2768 C.3     1  UNL1        0.0000
     37 H           4.2320    7.1704    8.2315 H       1  UNL1        0.0000
     38 H           3.3895    7.5767    9.7215 H       1  UNL1        0.0000
     39 H           3.6760    5.8951    9.3026 H       1  UNL1        0.0000
     40 C           5.6366    6.2282   11.9831 C.3     1  UNL1        0.0000
     41 H           5.3062    5.1925   11.9629 H       1  UNL1        0.0000
     42 H           4.9190    6.7939   12.5678 H       1  UNL1        0.0000
     43 H           6.5909    6.2640   12.5033 H       1  UNL1        0.0000
     44 C           6.5314    8.6676   10.2523 C.3     1  UNL1        0.0000
     45 H           7.4809    8.6736   10.7788 H       1  UNL1        0.0000
     46 H           5.8666    9.3494   10.7698 H       1  UNL1        0.0000
     47 H           6.6966    9.0642    9.2553 H       1  UNL1        0.0000
@<TRIPOS>BOND
     1    33    32    1
     2    34    32    1
     3    32    35    1
     4    32    27    1
     5    29    28    1
     6    27    28   ar
     7    27    25   ar
     8    28    30   ar
     9    26    25    1
    10    25    23   ar
    11    30    31    1
    12    30    22   ar
    13    23    22   ar
    14    23    24    1
    15    22    20    1
    16    20    21    1
    17    20     3    1
    18     3     4    1
    19    37    36    1
    20     5     4    1
    21     4     2    1
    22     4     6    1
    23     2     1    1
    24    47    44    1
    25    36    39    1
    26    36    38    1
    27    36     1    1
    28     1    44    1
    29     1    40    1
    30    15    14    1
    31    44    46    1
    32    44    45    1
    33     6    14   ar
    34     6     7   ar
    35     8     7    1
    36    14    12   ar
    37     7     9   ar
    38    12    13    1
    39    12    11   ar
    40    41    40    1
    41    40    43    1
    42    40    42    1
    43     9    11   ar
    44     9    10    1
    45    11    16    1
    46    19    16    1
    47    16    18    1
    48    16    17    1
