@<TRIPOS>MOLECULE
4,5
 52 53 0 0 0
SMALL
GASTEIGER

@<TRIPOS>ATOM
      1 P           7.5934    4.7831    5.5387 P.3     1  UNL1        0.0000
      2 SI          9.6685    5.6799    5.4897 Si      1  UNL1        0.0000
      3 SI          7.2330    3.1700    7.0765 Si      1  UNL1        0.0000
      4 N           7.2467    2.7486    3.5894 N.pl3   1  UNL1        0.0000
      5 N           6.9851    4.8285    2.8643 N.pl3   1  UNL1        0.0000
      6 C          10.4479    5.8215    3.7484 C.3     1  UNL1        0.0000
      7 C          10.8733    4.7648    6.6611 C.3     1  UNL1        0.0000
      8 C           9.3539    7.4482    6.1341 C.3     1  UNL1        0.0000
      9 C           8.5028    1.8484    7.6232 C.3     1  UNL1        0.0000
     10 C           6.9176    4.2684    8.6109 C.3     1  UNL1        0.0000
     11 C           5.5851    2.3648    6.5307 C.3     1  UNL1        0.0000
     12 C           8.0773    1.7826    4.1506 C.ar    1  UNL1        0.0000
     13 C           7.5887    0.4963    4.4072 C.ar    1  UNL1        0.0000
     14 C           8.4476   -0.5034    4.8188 C.ar    1  UNL1        0.0000
     15 C           9.7982   -0.2458    5.0030 C.ar    1  UNL1        0.0000
     16 C          10.2836    1.0329    4.7874 C.ar    1  UNL1        0.0000
     17 C           9.4343    2.0387    4.3688 C.ar    1  UNL1        0.0000
     18 C           6.7102    6.1906    3.0107 C.ar    1  UNL1        0.0000
     19 C           7.3732    7.1212    2.2073 C.ar    1  UNL1        0.0000
     20 C           7.0871    8.4698    2.3078 C.ar    1  UNL1        0.0000
     21 C           6.1288    8.9196    3.1997 C.ar    1  UNL1        0.0000
     22 C           5.4455    8.0030    3.9824 C.ar    1  UNL1        0.0000
     23 C           5.7274    6.6547    3.8908 C.ar    1  UNL1        0.0000
     24 C           7.3213    4.0560    3.8783 C.3     1  UNL1        0.0000
     25 H           9.7827    6.3687    3.0884 H       1  UNL1        0.0000
     26 H          10.6571    4.8575    3.2938 H       1  UNL1        0.0000
     27 H          11.3854    6.3679    3.7984 H       1  UNL1        0.0000
     28 H          11.0896    3.7553    6.3261 H       1  UNL1        0.0000
     29 H          10.4518    4.6998    7.6593 H       1  UNL1        0.0000
     30 H          11.8151    5.2994    6.7352 H       1  UNL1        0.0000
     31 H           8.6709    7.9808    5.4784 H       1  UNL1        0.0000
     32 H          10.2724    8.0227    6.2012 H       1  UNL1        0.0000
     33 H           8.9038    7.4228    7.1217 H       1  UNL1        0.0000
     34 H           8.4875    0.9745    6.9826 H       1  UNL1        0.0000
     35 H           8.2746    1.5244    8.6346 H       1  UNL1        0.0000
     36 H           9.5150    2.2382    7.6259 H       1  UNL1        0.0000
     37 H           6.2290    5.0764    8.3856 H       1  UNL1        0.0000
     38 H           7.8408    4.7157    8.9659 H       1  UNL1        0.0000
     39 H           6.4991    3.6900    9.4279 H       1  UNL1        0.0000
     40 H           4.7348    2.9464    6.8747 H       1  UNL1        0.0000
     41 H           5.4800    1.3578    6.9216 H       1  UNL1        0.0000
     42 H           5.5346    2.3114    5.4456 H       1  UNL1        0.0000
     43 H           6.5399    0.2879    4.2571 H       1  UNL1        0.0000
     44 H           8.0610   -1.4962    4.9950 H       1  UNL1        0.0000
     45 H          10.4654   -1.0354    5.3137 H       1  UNL1        0.0000
     46 H          11.3336    1.2445    4.9317 H       1  UNL1        0.0000
     47 H           9.8129    3.0320    4.1719 H       1  UNL1        0.0000
     48 H           8.1168    6.7811    1.5020 H       1  UNL1        0.0000
     49 H           7.6181    9.1741    1.6836 H       1  UNL1        0.0000
     50 H           5.9093    9.9737    3.2772 H       1  UNL1        0.0000
     51 H           4.6823    8.3413    4.6679 H       1  UNL1        0.0000
     52 H           5.1757    5.9438    4.4883 H       1  UNL1        0.0000
@<TRIPOS>BOND
     1    48    19    1
     2    49    20    1
     3    19    20   ar
     4    19    18   ar
     5    20    21   ar
     6     5    18    1
     7     5    24    1
     8    18    23   ar
     9    25     6    1
    10    21    50    1
    11    21    22   ar
    12    26     6    1
    13     4    24    1
    14     4    12    1
    15     6    27    1
    16     6     2    1
    17    24     1    1
    18    23    22   ar
    19    23    52    1
    20    22    51    1
    21    12    17   ar
    22    12    13   ar
    23    47    17    1
    24    43    13    1
    25    17    16   ar
    26    13    14   ar
    27    16    46    1
    28    16    15   ar
    29    14    44    1
    30    14    15   ar
    31    15    45    1
    32    42    11    1
    33    31     8    1
    34     2     1    1
    35     2     8    1
    36     2     7    1
    37     1     3    1
    38     8    32    1
    39     8    33    1
    40    28     7    1
    41    11    40    1
    42    11    41    1
    43    11     3    1
    44     7    30    1
    45     7    29    1
    46    34     9    1
    47     3     9    1
    48     3    10    1
    49     9    36    1
    50     9    35    1
    51    37    10    1
    52    10    38    1
    53    10    39    1
