@<TRIPOS>MOLECULE
3,4
 43 43 0 0 0
SMALL
GASTEIGER

@<TRIPOS>ATOM
      1 SI         -4.4144    5.9300   15.3671 Si      1  UNL1        0.0000
      2 SI         -0.5089    2.2888   14.1309 Si      1  UNL1        0.0000
      3 N          -2.8617    5.2008   15.1965 N.2     1  UNL1        0.5000
      4 N          -1.2219    3.7597   14.7142 N.pl3   1  UNL1        0.5000
      5 C          -2.4735    4.1190   14.5627 C.2     1  UNL1        0.0000
      6 C          -5.5606    5.8561   13.8367 C.3     1  UNL1        0.0000
      7 C          -3.9835    7.7502   15.7438 C.3     1  UNL1        0.0000
      8 C          -5.3356    5.1904   16.8769 C.3     1  UNL1        0.0000
      9 C           0.1905    2.4172   12.3549 C.3     1  UNL1        0.0000
     10 C          -1.6623    0.7563   14.1275 C.3     1  UNL1        0.0000
     11 C           0.9016    1.9129   15.3647 C.3     1  UNL1        0.0000
     12 C          -3.3929    3.3816   13.6676 C.ar    1  UNL1        0.0000
     13 C          -4.4687    2.6543   14.1592 C.ar    1  UNL1        0.0000
     14 C          -3.1804    3.4357   12.2961 C.ar    1  UNL1        0.0000
     15 C          -5.3080    1.9821   13.2919 C.ar    1  UNL1        0.0000
     16 C          -4.0344    2.7731   11.4333 C.ar    1  UNL1        0.0000
     17 C          -5.1059    2.0343   11.9168 C.ar    1  UNL1        0.0000
     18 C          -6.0321    1.3057   10.9907 C.3     1  UNL1        0.0000
     19 H          -4.6354    2.6062   15.2236 H       1  UNL1        0.0000
     20 H          -6.1361    1.4078   13.6835 H       1  UNL1        0.0000
     21 H          -3.8624    2.8280   10.3675 H       1  UNL1        0.0000
     22 H          -2.3460    4.0023   11.9121 H       1  UNL1        0.0000
     23 H          -7.0479    1.6862   11.0938 H       1  UNL1        0.0000
     24 H          -5.7213    1.4240    9.9560 H       1  UNL1        0.0000
     25 H          -6.0503    0.2431   11.2299 H       1  UNL1        0.0000
     26 H          -3.3009    7.7994   16.5877 H       1  UNL1        0.0000
     27 H          -3.4899    8.2276   14.9020 H       1  UNL1        0.0000
     28 H          -4.8652    8.3350   15.9865 H       1  UNL1        0.0000
     29 H          -6.0916    5.8782   17.2431 H       1  UNL1        0.0000
     30 H          -5.8378    4.2584   16.6358 H       1  UNL1        0.0000
     31 H          -4.6405    4.9932   17.6882 H       1  UNL1        0.0000
     32 H          -6.3818    6.5561   13.9520 H       1  UNL1        0.0000
     33 H          -5.0330    6.1140   12.9245 H       1  UNL1        0.0000
     34 H          -5.9861    4.8679   13.6980 H       1  UNL1        0.0000
     35 H           1.0052    1.7122   12.2203 H       1  UNL1        0.0000
     36 H          -0.5670    2.1829   11.6128 H       1  UNL1        0.0000
     37 H           0.5718    3.4082   12.1349 H       1  UNL1        0.0000
     38 H          -2.2180    0.6486   15.0528 H       1  UNL1        0.0000
     39 H          -2.3822    0.7944   13.3162 H       1  UNL1        0.0000
     40 H          -1.0709   -0.1449   13.9954 H       1  UNL1        0.0000
     41 H           1.2165    0.8774   15.2811 H       1  UNL1        0.0000
     42 H           1.7741    2.5293   15.1747 H       1  UNL1        0.0000
     43 H           0.5848    2.0827   16.3894 H       1  UNL1        0.0000
@<TRIPOS>BOND
     1    24    18    1
     2    21    16    1
     3    18    23    1
     4    18    25    1
     5    18    17    1
     6    16    17   ar
     7    16    14   ar
     8    36     9    1
     9    22    14    1
    10    17    15   ar
    11    37     9    1
    12    35     9    1
    13    14    12   ar
    14     9     2    1
    15    33     6    1
    16    15    20    1
    17    15    13   ar
    18    39    10    1
    19    12    13   ar
    20    12     5    1
    21    34     6    1
    22     6    32    1
    23     6     1    1
    24    40    10    1
    25    10     2    1
    26    10    38    1
    27     2     4    1
    28     2    11    1
    29    13    19    1
    30     5     4    1
    31     5     3    2
    32    27     7    1
    33    42    11    1
    34     3     1    1
    35    41    11    1
    36    11    43    1
    37     1     7    1
    38     1     8    1
    39     7    28    1
    40     7    26    1
    41    30     8    1
    42     8    29    1
    43     8    31    1
