@<TRIPOS>MOLECULE
3,4
 43 43 0 0 0
SMALL
GASTEIGER

@<TRIPOS>ATOM
      1 SI         -0.6170    8.7159   18.2775 Si      1  UNL1        0.0000
      2 SI         -1.9826    3.4719   18.7808 Si      1  UNL1        0.0000
      3 N          -1.0859    7.1155   17.7666 N.pl3   1  UNL1        0.5000
      4 N          -1.5870    4.9572   17.9736 N.2     1  UNL1        0.5000
      5 C          -1.5636    6.1490   18.5191 C.2     1  UNL1        0.0000
      6 C          -1.9327   10.0026   17.7528 C.3     1  UNL1        0.0000
      7 C           1.0669    9.0404   17.4378 C.3     1  UNL1        0.0000
      8 C          -0.3216    8.9757   20.1523 C.3     1  UNL1        0.0000
      9 C          -0.3595    2.7238   19.4783 C.3     1  UNL1        0.0000
     10 C          -3.2693    3.5551   20.1993 C.3     1  UNL1        0.0000
     11 C          -2.7211    2.2829   17.4913 C.3     1  UNL1        0.0000
     12 C          -2.0551    6.4142   19.8873 C.ar    1  UNL1        0.0000
     13 C          -3.2809    7.0395   20.0688 C.ar    1  UNL1        0.0000
     14 C          -1.3041    6.0554   20.9994 C.ar    1  UNL1        0.0000
     15 C          -3.7502    7.2933   21.3452 C.ar    1  UNL1        0.0000
     16 C          -1.7731    6.3226   22.2706 C.ar    1  UNL1        0.0000
     17 C          -3.0037    6.9424   22.4620 C.ar    1  UNL1        0.0000
     18 C          -3.5034    7.2125   23.8486 C.3     1  UNL1        0.0000
     19 H          -3.8680    7.3177   19.2056 H       1  UNL1        0.0000
     20 H          -0.3475    5.5747   20.8595 H       1  UNL1        0.0000
     21 H          -1.1797    6.0473   23.1311 H       1  UNL1        0.0000
     22 H          -4.7094    7.7742   21.4752 H       1  UNL1        0.0000
     23 H          -3.7124    6.2746   24.3628 H       1  UNL1        0.0000
     24 H          -2.7522    7.7478   24.4273 H       1  UNL1        0.0000
     25 H          -4.4151    7.8037   23.8267 H       1  UNL1        0.0000
     26 H          -2.8335    3.8897   21.1342 H       1  UNL1        0.0000
     27 H          -4.0937    4.2237   19.9705 H       1  UNL1        0.0000
     28 H          -3.6866    2.5667   20.3671 H       1  UNL1        0.0000
     29 H          -3.7990    2.3902   17.4240 H       1  UNL1        0.0000
     30 H          -2.3009    2.4668   16.5113 H       1  UNL1        0.0000
     31 H          -2.5134    1.2518   17.7584 H       1  UNL1        0.0000
     32 H          -1.2430    8.9719   20.7241 H       1  UNL1        0.0000
     33 H           0.3311    8.2187   20.5739 H       1  UNL1        0.0000
     34 H           0.1544    9.9393   20.3056 H       1  UNL1        0.0000
     35 H          -1.5833   11.0045   17.9810 H       1  UNL1        0.0000
     36 H          -2.1362    9.9578   16.6889 H       1  UNL1        0.0000
     37 H          -2.8731    9.8593   18.2771 H       1  UNL1        0.0000
     38 H           1.8682    8.5035   17.9368 H       1  UNL1        0.0000
     39 H           1.0507    8.7259   16.3990 H       1  UNL1        0.0000
     40 H           1.3152   10.0961   17.4676 H       1  UNL1        0.0000
     41 H          -0.4713    1.6588   19.6562 H       1  UNL1        0.0000
     42 H           0.4668    2.8587   18.7864 H       1  UNL1        0.0000
     43 H          -0.0755    3.1799   20.4222 H       1  UNL1        0.0000
@<TRIPOS>BOND
     1    39     7    1
     2    30    11    1
     3    36     6    1
     4    29    11    1
     5     7    40    1
     6     7    38    1
     7     7     1    1
     8    11    31    1
     9    11     2    1
    10     6    35    1
    11     6    37    1
    12     6     1    1
    13     3     1    1
    14     3     5    1
    15     4     5    2
    16     4     2    1
    17     1     8    1
    18     5    12    1
    19     2     9    1
    20     2    10    1
    21    42     9    1
    22    19    13    1
    23     9    41    1
    24     9    43    1
    25    12    13   ar
    26    12    14   ar
    27    27    10    1
    28    13    15   ar
    29     8    34    1
    30     8    33    1
    31     8    32    1
    32    10    28    1
    33    10    26    1
    34    20    14    1
    35    14    16   ar
    36    15    22    1
    37    15    17   ar
    38    16    17   ar
    39    16    21    1
    40    17    18    1
    41    25    18    1
    42    18    23    1
    43    18    24    1
