@<TRIPOS>MOLECULE
1,3
 56 57 0 0 0
SMALL
GASTEIGER

@<TRIPOS>ATOM
      1 N           1.5138    6.5117   10.5699 N.3     1  UNL1        0.0000
      2 N          -0.6611    6.8210    8.8967 N.2     1  UNL1        0.0000
      3 N           1.8515    4.3447   11.0254 N.3     1  UNL1        0.0000
      4 SI         -2.2187    6.5290    8.1962 Si      1  UNL1        0.0000
      5 SI          2.3016    2.6893   10.9510 Si      1  UNL1        0.0000
      6 C           2.1736    5.0343    8.7028 C.ar    1  UNL1        0.0000
      7 C           1.1529    4.4805    7.9382 C.ar    1  UNL1        0.0000
      8 H           0.2061    4.2764    8.4113 H       1  UNL1        0.0000
      9 C           1.3552    4.2074    6.5982 C.ar    1  UNL1        0.0000
     10 H           0.5570    3.7783    6.0104 H       1  UNL1        0.0000
     11 C           2.5796    4.4763    6.0092 C.ar    1  UNL1        0.0000
     12 H           2.7390    4.2620    4.9626 H       1  UNL1        0.0000
     13 C           3.6023    5.0161    6.7696 C.ar    1  UNL1        0.0000
     14 H           4.5627    5.2199    6.3179 H       1  UNL1        0.0000
     15 C           3.4029    5.2979    8.1108 C.ar    1  UNL1        0.0000
     16 H           4.2107    5.7126    8.6946 H       1  UNL1        0.0000
     17 C           1.8667    5.3123   10.1342 C.3     1  UNL1        0.0000
     18 C           1.5120    7.6034    9.6136 C.3     1  UNL1        0.0000
     19 H           2.3694    7.5019    8.9259 H       1  UNL1        0.0000
     20 C           1.6587    8.9550   10.3323 C.3     1  UNL1        0.0000
     21 H           0.8004    9.1127   10.9872 H       1  UNL1        0.0000
     22 H           2.5626    8.9281   10.9473 H       1  UNL1        0.0000
     23 C           1.7330   10.0907    9.3174 C.3     1  UNL1        0.0000
     24 H           2.6216    9.9710    8.6922 H       1  UNL1        0.0000
     25 H           1.8187   11.0455    9.8403 H       1  UNL1        0.0000
     26 C           0.4872   10.0916    8.4384 C.3     1  UNL1        0.0000
     27 H          -0.3957   10.2599    9.0586 H       1  UNL1        0.0000
     28 H           0.5446   10.8982    7.7046 H       1  UNL1        0.0000
     29 C           0.3361    8.7499    7.7162 C.3     1  UNL1        0.0000
     30 H           1.1991    8.5871    7.0652 H       1  UNL1        0.0000
     31 H          -0.5655    8.7451    7.1095 H       1  UNL1        0.0000
     32 C           0.2732    7.6393    8.7303 C.2     1  UNL1        0.0000
     33 C          -2.3937    4.6574    7.9129 C.3     1  UNL1        0.0000
     34 H          -1.7922    4.3012    7.0834 H       1  UNL1        0.0000
     35 H          -3.4283    4.4144    7.6917 H       1  UNL1        0.0000
     36 H          -2.1150    4.1105    8.8062 H       1  UNL1        0.0000
     37 C          -3.5099    7.0764    9.4905 C.3     1  UNL1        0.0000
     38 H          -3.5933    6.3418   10.2839 H       1  UNL1        0.0000
     39 H          -4.4863    7.1647    9.0251 H       1  UNL1        0.0000
     40 H          -3.2724    8.0336    9.9406 H       1  UNL1        0.0000
     41 C          -2.6656    7.3839    6.5330 C.3     1  UNL1        0.0000
     42 H          -2.8129    8.4545    6.6491 H       1  UNL1        0.0000
     43 H          -3.5907    6.9777    6.1339 H       1  UNL1        0.0000
     44 H          -1.8983    7.2321    5.7778 H       1  UNL1        0.0000
     45 C           3.8002    2.4508   12.1231 C.3     1  UNL1        0.0000
     46 H           4.7309    2.7669   11.6617 H       1  UNL1        0.0000
     47 H           3.9133    1.4083   12.4021 H       1  UNL1        0.0000
     48 H           3.6643    3.0323   13.0294 H       1  UNL1        0.0000
     49 C           2.8000    1.9363    9.2626 C.3     1  UNL1        0.0000
     50 H           1.9731    1.9278    8.5609 H       1  UNL1        0.0000
     51 H           3.1301    0.9114    9.3970 H       1  UNL1        0.0000
     52 H           3.6136    2.4853    8.7994 H       1  UNL1        0.0000
     53 C           0.7897    1.7357   11.6296 C.3     1  UNL1        0.0000
     54 H           0.3855    2.2848   12.4791 H       1  UNL1        0.0000
     55 H           1.0542    0.7367   11.9612 H       1  UNL1        0.0000
     56 H           0.0010    1.6400   10.8878 H       1  UNL1        0.0000
@<TRIPOS>BOND
     1    12    11    1
     2    44    41    1
     3    11     9   ar
     4    11    13   ar
     5    10     9    1
     6    43    41    1
     7    14    13    1
     8    41    42    1
     9    41     4    1
    10     9     7   ar
    11    13    15   ar
    12    30    29    1
    13    34    33    1
    14    31    29    1
    15    35    33    1
    16    28    26    1
    17    29    26    1
    18    29    32    1
    19    33     4    1
    20    33    36    1
    21     7     8    1
    22     7     6   ar
    23    15    16    1
    24    15     6   ar
    25     4     2    1
    26     4    37    1
    27    26    27    1
    28    26    23    1
    29    50    49    1
    30    24    23    1
    31     6    17    1
    32    32     2    2
    33    32    18    1
    34    52    49    1
    35    19    18    1
    36    39    37    1
    37    49    51    1
    38    49     5    1
    39    23    25    1
    40    23    20    1
    41    37    40    1
    42    37    38    1
    43    18    20    1
    44    18     1    1
    45    17     1    1
    46    17     3    1
    47    20    22    1
    48    20    21    1
    49    56    53    1
    50     5     3    1
    51     5    53    1
    52     5    45    1
    53    53    55    1
    54    53    54    1
    55    46    45    1
    56    45    47    1
    57    45    48    1
