@<TRIPOS>MOLECULE
1,2
 44 44 0 0 0
SMALL
GASTEIGER

@<TRIPOS>ATOM
      1 N           7.0344    8.7074    7.8421 N.3     1  UNL1        0.0000
      2 N           4.9752   10.3574    8.2516 N.3     1  UNL1        0.0000
      3 SI          8.3774    7.7661    8.3837 Si      1  UNL1        0.0000
      4 SI          3.9158   11.5980    8.7759 Si      1  UNL1        0.0000
      5 C           5.7085    8.1307    7.7080 C.3     1  UNL1        0.0000
      6 H           5.3834    7.7094    8.6844 H       1  UNL1        0.0000
      7 C           5.6088    7.0241    6.6551 C.3     1  UNL1        0.0000
      8 H           6.3163    6.2294    6.8938 H       1  UNL1        0.0000
      9 H           5.8822    7.4385    5.6817 H       1  UNL1        0.0000
     10 C           4.1862    6.4707    6.6223 C.3     1  UNL1        0.0000
     11 H           4.1060    5.6987    5.8541 H       1  UNL1        0.0000
     12 H           3.9633    6.0079    7.5862 H       1  UNL1        0.0000
     13 C           3.1686    7.5761    6.3486 C.3     1  UNL1        0.0000
     14 H           3.3322    7.9755    5.3449 H       1  UNL1        0.0000
     15 H           2.1587    7.1623    6.3827 H       1  UNL1        0.0000
     16 C           3.2964    8.7102    7.3636 C.3     1  UNL1        0.0000
     17 H           3.0727    8.3503    8.3699 H       1  UNL1        0.0000
     18 H           2.5936    9.5094    7.1243 H       1  UNL1        0.0000
     19 C           4.7220    9.2646    7.3444 C.3     1  UNL1        0.0000
     20 H           4.9435    9.5905    6.3060 H       1  UNL1        0.0000
     21 C           7.8932    6.3394    9.5752 C.3     1  UNL1        0.0000
     22 H           7.3240    6.7285   10.4168 H       1  UNL1        0.0000
     23 H           8.7711    5.8398    9.9725 H       1  UNL1        0.0000
     24 H           7.2858    5.5860    9.0828 H       1  UNL1        0.0000
     25 C           9.3539    7.0302    6.9008 C.3     1  UNL1        0.0000
     26 H           8.7919    6.2564    6.3892 H       1  UNL1        0.0000
     27 H          10.2809    6.5851    7.2450 H       1  UNL1        0.0000
     28 H           9.6055    7.7892    6.1661 H       1  UNL1        0.0000
     29 C           9.5329    8.9605    9.3518 C.3     1  UNL1        0.0000
     30 H           9.2084   10.0003    9.2392 H       1  UNL1        0.0000
     31 H          10.5631    8.8885    9.0161 H       1  UNL1        0.0000
     32 H           9.5177    8.7266   10.4137 H       1  UNL1        0.0000
     33 C           3.1779   12.6457    7.3399 C.3     1  UNL1        0.0000
     34 H           3.9419   13.2205    6.8237 H       1  UNL1        0.0000
     35 H           2.4400   13.3468    7.7149 H       1  UNL1        0.0000
     36 H           2.6855   12.0198    6.6020 H       1  UNL1        0.0000
     37 C           2.4663   11.0054    9.8880 C.3     1  UNL1        0.0000
     38 H           1.6698   10.5434    9.3135 H       1  UNL1        0.0000
     39 H           2.0328   11.8389   10.4318 H       1  UNL1        0.0000
     40 H           2.8129   10.2800   10.6196 H       1  UNL1        0.0000
     41 C           5.0665   12.7064    9.8358 C.3     1  UNL1        0.0000
     42 H           5.2962   12.2180   10.7829 H       1  UNL1        0.0000
     43 H           4.6084   13.6631   10.0669 H       1  UNL1        0.0000
     44 H           6.0084   12.9024    9.3163 H       1  UNL1        0.0000
@<TRIPOS>BOND
     1    14    13    1
     2     9     7    1
     3    11    10    1
     4    28    25    1
     5    20    19    1
     6    13    15    1
     7    13    10    1
     8    13    16    1
     9    26    25    1
    10    36    33    1
    11    10     7    1
    12    10    12    1
    13     7     8    1
    14     7     5    1
    15    34    33    1
    16    25    27    1
    17    25     3    1
    18    18    16    1
    19    33    35    1
    20    33     4    1
    21    19    16    1
    22    19     5    1
    23    19     2    1
    24    16    17    1
    25     5     1    1
    26     5     6    1
    27     1     3    1
    28     2     4    1
    29     3    29    1
    30     3    21    1
    31     4    41    1
    32     4    37    1
    33    31    29    1
    34    24    21    1
    35    30    29    1
    36    38    37    1
    37    44    41    1
    38    29    32    1
    39    21    23    1
    40    21    22    1
    41    41    43    1
    42    41    42    1
    43    37    39    1
    44    37    40    1
