@<TRIPOS>MOLECULE
2,3
 58 59 0 0 0
SMALL
GASTEIGER

@<TRIPOS>ATOM
      1 N           6.6707    9.4173    6.7659 N.3     1  UNL1       -0.3071
      2 N           4.4905    7.9143    5.9379 N.3     1  UNL1       -0.2050
      3 N           3.6389    6.0477    6.8428 N.pl3   1  UNL1       -0.2180
      4 C           7.2060   10.6201    7.3911 C.3     1  UNL1       -0.0130
      5 C           7.7637    8.4888    6.4998 C.3     1  UNL1       -0.0130
      6 C           5.9783    9.7799    5.5279 C.3     1  UNL1        0.0125
      7 C           5.2206    8.6018    4.8996 C.3     1  UNL1        0.0295
      8 C           4.0349    6.6864    5.7567 C.3     1  UNL1        0.1859
      9 C           4.0219    6.0601    4.4065 C.ar    1  UNL1       -0.0029
     10 C           3.3419    6.6694    3.3564 C.ar    1  UNL1       -0.0550
     11 C           3.3517    6.1045    2.0940 C.ar    1  UNL1       -0.0614
     12 C           4.0379    4.9235    1.8652 C.ar    1  UNL1       -0.0617
     13 C           4.7110    4.3080    2.9067 C.ar    1  UNL1       -0.0614
     14 C           4.7044    4.8733    4.1690 C.ar    1  UNL1       -0.0550
     15 C           3.0986    4.7569    6.8031 C.ar    1  UNL1        0.0573
     16 C           1.8170    4.4929    6.2844 C.ar    1  UNL1       -0.0219
     17 C           1.3168    3.2000    6.3348 C.ar    1  UNL1       -0.0565
     18 C           2.0436    2.1657    6.8888 C.ar    1  UNL1       -0.0611
     19 C           3.2910    2.4281    7.4210 C.ar    1  UNL1       -0.0565
     20 C           3.8313    3.7029    7.3864 C.ar    1  UNL1       -0.0219
     21 C           0.9388    5.5862    5.7189 C.3     1  UNL1       -0.0197
     22 C           0.5081    5.2720    4.2838 C.3     1  UNL1       -0.0586
     23 C          -0.3026    5.7759    6.5962 C.3     1  UNL1       -0.0586
     24 C           5.1930    3.9441    8.0024 C.3     1  UNL1       -0.0197
     25 C           6.2707    3.0360    7.4044 C.3     1  UNL1       -0.0586
     26 C           5.1220    3.7342    9.5176 C.3     1  UNL1       -0.0586
     27 H           7.6862   10.3536    8.3313 H       1  UNL1        0.0391
     28 H           6.3959   11.3181    7.5983 H       1  UNL1        0.0391
     29 H           7.9440   11.1231    6.7468 H       1  UNL1        0.0391
     30 H           7.3689    7.5541    6.1061 H       1  UNL1        0.0391
     31 H           8.2882    8.2777    7.4307 H       1  UNL1        0.0391
     32 H           8.4828    8.9036    5.7759 H       1  UNL1        0.0391
     33 H           6.6838   10.1901    4.7840 H       1  UNL1        0.0439
     34 H           5.2495   10.5542    5.7819 H       1  UNL1        0.0439
     35 H           4.5581    9.0174    4.1251 H       1  UNL1        0.0454
     36 H           5.9211    7.9241    4.3868 H       1  UNL1        0.0454
     37 H           2.7852    7.5777    3.5358 H       1  UNL1        0.0621
     38 H           2.8167    6.5843    1.2872 H       1  UNL1        0.0618
     39 H           4.0443    4.4826    0.8791 H       1  UNL1        0.0618
     40 H           5.2436    3.3837    2.7357 H       1  UNL1        0.0618
     41 H           5.2330    4.3970    4.9796 H       1  UNL1        0.0621
     42 H           0.3360    2.9953    5.9319 H       1  UNL1        0.0621
     43 H           1.6390    1.1643    6.9115 H       1  UNL1        0.0618
     44 H           3.8557    1.6205    7.8639 H       1  UNL1        0.0621
     45 H           1.5026    6.5244    5.7198 H       1  UNL1        0.0344
     46 H          -0.1972    4.4444    4.2657 H       1  UNL1        0.0235
     47 H           1.3652    5.0019    3.6726 H       1  UNL1        0.0235
     48 H           0.0231    6.1387    3.8390 H       1  UNL1        0.0235
     49 H          -0.9112    4.8743    6.6018 H       1  UNL1        0.0235
     50 H          -0.9077    6.5959    6.2151 H       1  UNL1        0.0235
     51 H          -0.0183    6.0012    7.6206 H       1  UNL1        0.0235
     52 H           5.4745    4.9888    7.8131 H       1  UNL1        0.0344
     53 H           6.0802    1.9926    7.6444 H       1  UNL1        0.0235
     54 H           7.2465    3.3039    7.8057 H       1  UNL1        0.0235
     55 H           6.3103    3.1291    6.3213 H       1  UNL1        0.0235
     56 H           4.4148    4.4346    9.9537 H       1  UNL1        0.0235
     57 H           6.0995    3.8950    9.9684 H       1  UNL1        0.0235
     58 H           4.7994    2.7212    9.7508 H       1  UNL1        0.0235
@<TRIPOS>BOND
     1    39    12    1
     2    38    11    1
     3    12    11   ar
     4    12    13   ar
     5    11    10   ar
     6    40    13    1
     7    13    14   ar
     8    10    37    1
     9    10     9   ar
    10    47    22    1
    11    48    22    1
    12    35     7    1
    13    14     9   ar
    14    14    41    1
    15    46    22    1
    16    22    21    1
    17    36     7    1
    18     9     8    1
    19    33     6    1
    20     7     6    1
    21     7     2    1
    22     6    34    1
    23     6     1    1
    24    21    45    1
    25    21    16    1
    26    21    23    1
    27     8     2    1
    28     8     3    1
    29    32     5    1
    30    42    17    1
    31    30     5    1
    32    50    23    1
    33    16    17   ar
    34    16    15   ar
    35    55    25    1
    36    17    18   ar
    37     5     1    1
    38     5    31    1
    39    23    49    1
    40    23    51    1
    41    29     4    1
    42     1     4    1
    43    15     3    1
    44    15    20   ar
    45    18    43    1
    46    18    19   ar
    47    20    19   ar
    48    20    24    1
    49     4    28    1
    50     4    27    1
    51    25    53    1
    52    25    54    1
    53    25    24    1
    54    19    44    1
    55    52    24    1
    56    24    26    1
    57    26    58    1
    58    26    56    1
    59    26    57    1
