@<TRIPOS>MOLECULE
6,7
 72 74 0 0 0
SMALL
GASTEIGER

@<TRIPOS>ATOM
      1 F           0.2501    1.8155    6.8805 F       1  UNL1       -0.2019
      2 F          -1.2888    3.1997    5.1555 F       1  UNL1       -0.1993
      3 F          -0.3115    5.4582    3.9629 F       1  UNL1       -0.1993
      4 F           2.2360    6.2765    4.5156 F       1  UNL1       -0.1993
      5 F           3.8007    4.8327    6.1410 F       1  UNL1       -0.2019
      6 N           3.0704    1.0998    7.1768 N.pl3   1  UNL1       -0.2141
      7 N           3.4586    2.8416    8.5497 N.pl3   1  UNL1       -0.2141
      8 C           2.7213    0.5309    5.9391 C.ar    1  UNL1        0.0576
      9 C           1.8276   -0.5546    5.9148 C.ar    1  UNL1       -0.0219
     10 C           1.4927   -1.1282    4.6984 C.ar    1  UNL1       -0.0565
     11 C           2.0369   -0.6658    3.5163 C.ar    1  UNL1       -0.0611
     12 C           2.9734    0.3483    3.5521 C.ar    1  UNL1       -0.0565
     13 C           3.3352    0.9557    4.7457 C.ar    1  UNL1       -0.0219
     14 C           1.2886   -1.1541    7.1946 C.3     1  UNL1       -0.0197
     15 C           1.9739   -2.5040    7.4354 C.3     1  UNL1       -0.0586
     16 C          -0.2299   -1.3359    7.1776 C.3     1  UNL1       -0.0586
     17 C           4.4654    1.9625    4.7378 C.3     1  UNL1       -0.0197
     18 C           5.8007    1.2161    4.6366 C.3     1  UNL1       -0.0586
     19 C           4.3433    2.9778    3.5981 C.3     1  UNL1       -0.0586
     20 C           2.9154    2.3833    7.4452 C.3     1  UNL1        0.2109
     21 C           2.0890    3.2474    6.5315 C.ar    1  UNL1        0.0772
     22 C           0.7749    2.8738    6.2600 C.ar    1  UNL1        0.1712
     23 C          -0.0367    3.5978    5.3962 C.ar    1  UNL1        0.1968
     24 C           0.4559    4.7510    4.7939 C.ar    1  UNL1        0.1991
     25 C           1.7521    5.1645    5.0765 C.ar    1  UNL1        0.1968
     26 C           2.5519    4.4133    5.9334 C.ar    1  UNL1        0.1712
     27 C           3.4619    4.1899    8.9438 C.ar    1  UNL1        0.0576
     28 C           2.3164    4.8505    9.4176 C.ar    1  UNL1       -0.0219
     29 C           2.4336    6.1533    9.8854 C.ar    1  UNL1       -0.0565
     30 C           3.6494    6.8040    9.9051 C.ar    1  UNL1       -0.0611
     31 C           4.7762    6.1500    9.4429 C.ar    1  UNL1       -0.0565
     32 C           4.7036    4.8579    8.9513 C.ar    1  UNL1       -0.0219
     33 C           0.9592    4.1851    9.4728 C.3     1  UNL1       -0.0197
     34 C          -0.0745    4.9777    8.6645 C.3     1  UNL1       -0.0586
     35 C           0.4785    4.0507   10.9210 C.3     1  UNL1       -0.0586
     36 C           5.9582    4.1790    8.4468 C.3     1  UNL1       -0.0197
     37 C           6.7439    5.0551    7.4691 C.3     1  UNL1       -0.0586
     38 C           6.8477    3.7844    9.6298 C.3     1  UNL1       -0.0586
     39 H           0.7967   -1.9525    4.6724 H       1  UNL1        0.0621
     40 H           1.7560   -1.1133    2.5746 H       1  UNL1        0.0618
     41 H           3.4389    0.6681    2.6327 H       1  UNL1        0.0621
     42 H           1.5454   -0.4851    8.0261 H       1  UNL1        0.0344
     43 H           1.7706   -3.1850    6.6113 H       1  UNL1        0.0235
     44 H           1.6071   -2.9548    8.3548 H       1  UNL1        0.0235
     45 H           3.0524   -2.3738    7.5171 H       1  UNL1        0.0235
     46 H          -0.7288   -0.4048    6.9270 H       1  UNL1        0.0235
     47 H          -0.5722   -1.6565    8.1598 H       1  UNL1        0.0235
     48 H          -0.5276   -2.0917    6.4552 H       1  UNL1        0.0235
     49 H           4.4793    2.5044    5.6858 H       1  UNL1        0.0344
     50 H           5.9370    0.5687    5.5001 H       1  UNL1        0.0235
     51 H           6.6229    1.9280    4.6000 H       1  UNL1        0.0235
     52 H           5.8290    0.6045    3.7373 H       1  UNL1        0.0235
     53 H           4.6501    2.5383    2.6523 H       1  UNL1        0.0235
     54 H           4.9852    3.8345    3.7913 H       1  UNL1        0.0235
     55 H           3.3179    3.3283    3.4917 H       1  UNL1        0.0235
     56 H           1.5540    6.6670   10.2429 H       1  UNL1        0.0621
     57 H           3.7194    7.8159   10.2754 H       1  UNL1        0.0618
     58 H           5.7261    6.6620    9.4570 H       1  UNL1        0.0621
     59 H           1.0404    3.1776    9.0547 H       1  UNL1        0.0344
     60 H          -0.3722    5.8749    9.2017 H       1  UNL1        0.0235
     61 H          -0.9650    4.3760    8.4954 H       1  UNL1        0.0235
     62 H           0.3303    5.2827    7.7011 H       1  UNL1        0.0235
     63 H           1.1885    3.4781   11.5121 H       1  UNL1        0.0235
     64 H          -0.4830    3.5429   10.9445 H       1  UNL1        0.0235
     65 H           0.3620    5.0287   11.3818 H       1  UNL1        0.0235
     66 H           5.6650    3.2635    7.9189 H       1  UNL1        0.0344
     67 H           6.0962    5.4313    6.6830 H       1  UNL1        0.0235
     68 H           7.5403    4.4706    7.0126 H       1  UNL1        0.0235
     69 H           7.1984    5.9026    7.9761 H       1  UNL1        0.0235
     70 H           7.1101    4.6637   10.2161 H       1  UNL1        0.0235
     71 H           7.7662    3.3236    9.2716 H       1  UNL1        0.0235
     72 H           6.3245    3.0739   10.2668 H       1  UNL1        0.0235
@<TRIPOS>BOND
     1    40    11    1
     2    41    12    1
     3    53    19    1
     4    55    19    1
     5    11    12   ar
     6    11    10   ar
     7    12    13   ar
     8    19    54    1
     9    19    17    1
    10    52    18    1
    11     3    24    1
    12     4    25    1
    13    51    18    1
    14    18    17    1
    15    18    50    1
    16    39    10    1
    17    10     9   ar
    18    17    13    1
    19    17    49    1
    20    13     8   ar
    21    24    25   ar
    22    24    23   ar
    23    25    26   ar
    24     2    23    1
    25    23    22   ar
    26     9     8   ar
    27     9    14    1
    28    26     5    1
    29    26    21   ar
    30     8     6    1
    31    22    21   ar
    32    22     1    1
    33    48    16    1
    34    21    20    1
    35    43    15    1
    36    67    37    1
    37    46    16    1
    38    68    37    1
    39     6    20    1
    40    16    14    1
    41    16    47    1
    42    14    15    1
    43    14    42    1
    44    15    45    1
    45    15    44    1
    46    20     7    1
    47    37    69    1
    48    37    36    1
    49    62    34    1
    50    66    36    1
    51    36    32    1
    52    36    38    1
    53    61    34    1
    54     7    27    1
    55    34    60    1
    56    34    33    1
    57    27    32   ar
    58    27    28   ar
    59    32    31   ar
    60    59    33    1
    61    71    38    1
    62    28    33    1
    63    28    29   ar
    64    31    58    1
    65    31    30   ar
    66    33    35    1
    67    38    70    1
    68    38    72    1
    69    29    30   ar
    70    29    56    1
    71    30    57    1
    72    35    64    1
    73    35    65    1
    74    35    63    1
