@<TRIPOS>MOLECULE
3,4
 48 49 0 0 0
SMALL
GASTEIGER

@<TRIPOS>ATOM
      1 SI         -9.2576   10.1618    6.1884 Si      1  UNL1        0.0000
      2 SI        -14.2208   25.1260    4.4433 Si      1  UNL1        0.0000
      3 N         -11.7163   16.2276    5.0837 N.pl3   1  UNL1        0.0000
      4 N         -12.5455   18.7111    4.7983 N.pl3   1  UNL1        0.0000
      5 C          -9.6551   11.9788    6.0689 C.1     1  UNL1        0.0000
      6 C          -9.9382   13.1525    5.9978 C.1     1  UNL1        0.0000
      7 C         -10.2622   14.5238    5.9306 C.2     1  UNL1        0.0000
      8 C          -9.5255   15.4872    6.6267 C.2     1  UNL1        0.0000
      9 H          -8.6845   15.1917    7.2354 H       1  UNL1        0.0000
     10 C          -9.8975   16.8084    6.5200 C.2     1  UNL1        0.0000
     11 H          -9.3396   17.5618    7.0512 H       1  UNL1        0.0000
     12 C         -11.0029   17.1624    5.7425 C.2     1  UNL1        0.0000
     13 C         -11.3487   14.9586    5.1706 C.2     1  UNL1        0.0000
     14 H         -11.9382   14.2369    4.6193 H       1  UNL1        0.0000
     15 C          -9.5177    9.3960    4.4646 C.3     1  UNL1        0.0000
     16 H         -10.5408    9.5289    4.1259 H       1  UNL1        0.0000
     17 H          -9.3096    8.3298    4.4719 H       1  UNL1        0.0000
     18 H          -8.8659    9.8530    3.7258 H       1  UNL1        0.0000
     19 C         -10.4414    9.4060    7.4742 C.3     1  UNL1        0.0000
     20 H         -11.4778    9.5396    7.1791 H       1  UNL1        0.0000
     21 H         -10.3159    9.8704    8.4478 H       1  UNL1        0.0000
     22 H         -10.2674    8.3403    7.5928 H       1  UNL1        0.0000
     23 C          -7.4420   10.0059    6.7468 C.3     1  UNL1        0.0000
     24 H          -7.1487    8.9646    6.8446 H       1  UNL1        0.0000
     25 H          -7.2821   10.4832    7.7092 H       1  UNL1        0.0000
     26 H          -6.7677   10.4709    6.0336 H       1  UNL1        0.0000
     27 C         -13.4628   23.4480    4.7326 C.1     1  UNL1        0.0000
     28 C         -12.9934   22.3498    4.9234 C.1     1  UNL1        0.0000
     29 C         -12.4385   21.0754    5.1641 C.2     1  UNL1        0.0000
     30 C         -11.3179   20.9062    5.9833 C.2     1  UNL1        0.0000
     31 H         -10.8531   21.7613    6.4500 H       1  UNL1        0.0000
     32 C         -10.8288   19.6344    6.1800 C.2     1  UNL1        0.0000
     33 H          -9.9656   19.4885    6.8083 H       1  UNL1        0.0000
     34 C         -11.4607   18.5422    5.5803 C.2     1  UNL1        0.0000
     35 C         -13.0072   19.9354    4.5948 C.2     1  UNL1        0.0000
     36 H         -13.8741   20.0338    3.9537 H       1  UNL1        0.0000
     37 C         -16.0802   24.9903    4.8280 C.3     1  UNL1        0.0000
     38 H         -16.5628   24.2624    4.1827 H       1  UNL1        0.0000
     39 H         -16.5839   25.9423    4.6854 H       1  UNL1        0.0000
     40 H         -16.2485   24.6794    5.8548 H       1  UNL1        0.0000
     41 C         -13.3569   26.3570    5.6139 C.3     1  UNL1        0.0000
     42 H         -12.2915   26.4152    5.4109 H       1  UNL1        0.0000
     43 H         -13.4777   26.0639    6.6527 H       1  UNL1        0.0000
     44 H         -13.7666   27.3572    5.5055 H       1  UNL1        0.0000
     45 C         -13.9182   25.5855    2.6196 C.3     1  UNL1        0.0000
     46 H         -12.8572   25.6235    2.3912 H       1  UNL1        0.0000
     47 H         -14.3401   26.5586    2.3846 H       1  UNL1        0.0000
     48 H         -14.3718   24.8603    1.9508 H       1  UNL1        0.0000
@<TRIPOS>BOND
     1    48    45    1
     2    47    45    1
     3    46    45    1
     4    45     2    1
     5    18    15    1
     6    36    35    1
     7    16    15    1
     8    38    37    1
     9     2    27    1
    10     2    37    1
    11     2    41    1
    12    15    17    1
    13    15     1    1
    14    35     4    1
    15    35    29    2
    16    14    13    1
    17    39    37    1
    18    27    28    3
    19     4    34    1
    20    37    40    1
    21    28    29    1
    22     3    13    1
    23     3    12    1
    24    29    30    1
    25    13     7    2
    26    42    41    1
    27    44    41    1
    28    34    12    2
    29    34    32    1
    30    41    43    1
    31    12    10    1
    32     7     6    1
    33     7     8    1
    34    30    32    2
    35    30    31    1
    36     6     5    3
    37    26    23    1
    38     5     1    1
    39    32    33    1
    40     1    23    1
    41     1    19    1
    42    10     8    2
    43    10    11    1
    44     8     9    1
    45    23    24    1
    46    23    25    1
    47    20    19    1
    48    19    22    1
    49    19    21    1
