@<TRIPOS>MOLECULE
2,3
 36 36 0 0 0
SMALL
GASTEIGER

@<TRIPOS>ATOM
      1 BR          0.6127    8.5633    3.3560 Br      1  UNL1       -0.0503
      2 N           2.7998    3.2368    5.2794 N.pl3   1  UNL1       -0.2081
      3 N           2.6366    1.0669    5.7730 N.3     1  UNL1       -0.1929
      4 N           1.8262    1.7857    3.6528 N.3     1  UNL1       -0.2747
      5 H           1.5852    0.8144    3.5020 H       1  UNL1        0.1256
      6 C           2.4013    2.0120    4.8818 C.3     1  UNL1        0.2263
      7 C           2.3481    2.3948    2.4349 C.3     1  UNL1        0.0053
      8 H           2.6637    3.4122    2.6783 H       1  UNL1        0.0456
      9 C           1.2351    2.4468    1.3939 C.3     1  UNL1       -0.0498
     10 H           0.8914    1.4426    1.1535 H       1  UNL1        0.0245
     11 H           1.5973    2.9170    0.4841 H       1  UNL1        0.0245
     12 H           0.3942    3.0220    1.7713 H       1  UNL1        0.0245
     13 C           3.5574    1.6112    1.9187 C.3     1  UNL1       -0.0498
     14 H           4.3193    1.5448    2.6940 H       1  UNL1        0.0245
     15 H           3.9870    2.1074    1.0527 H       1  UNL1        0.0245
     16 H           3.2654    0.6023    1.6302 H       1  UNL1        0.0245
     17 C           2.3747   -0.3384    5.5129 C.3     1  UNL1        0.0235
     18 H           2.5928   -0.5908    4.4585 H       1  UNL1        0.0472
     19 C           0.9103   -0.6801    5.8186 C.3     1  UNL1       -0.0483
     20 H           0.7211   -0.5396    6.8806 H       1  UNL1        0.0245
     21 H           0.7009   -1.7155    5.5598 H       1  UNL1        0.0245
     22 H           0.2360   -0.0346    5.2586 H       1  UNL1        0.0245
     23 C           3.3036   -1.1717    6.3977 C.3     1  UNL1       -0.0483
     24 H           4.3411   -1.0162    6.1072 H       1  UNL1        0.0245
     25 H           3.0678   -2.2291    6.2985 H       1  UNL1        0.0245
     26 H           3.1794   -0.8778    7.4409 H       1  UNL1        0.0245
     27 C           2.2776    4.4083    4.7725 C.ar    1  UNL1        0.0515
     28 C           3.0936    5.5505    4.7680 C.ar    1  UNL1       -0.0380
     29 H           4.1149    5.4534    5.1050 H       1  UNL1        0.0637
     30 C           2.6094    6.7705    4.3482 C.ar    1  UNL1       -0.0460
     31 H           3.2483    7.6407    4.3434 H       1  UNL1        0.0629
     32 C           1.2925    6.8716    3.9295 C.ar    1  UNL1        0.0180
     33 C           0.4576    5.7667    3.9341 C.ar    1  UNL1       -0.0460
     34 H          -0.5704    5.8637    3.6179 H       1  UNL1        0.0629
     35 C           0.9449    4.5464    4.3523 C.ar    1  UNL1       -0.0380
     36 H           0.2926    3.6862    4.3724 H       1  UNL1        0.0637
@<TRIPOS>BOND
     1    11     9    1
     2    15    13    1
     3    10     9    1
     4     9    12    1
     5     9     7    1
     6    16    13    1
     7    13     7    1
     8    13    14    1
     9     7     8    1
    10     7     4    1
    11     1    32    1
    12     5     4    1
    13    34    33    1
    14     4     6    1
    15    32    33   ar
    16    32    30   ar
    17    33    35   ar
    18    31    30    1
    19    30    28   ar
    20    35    36    1
    21    35    27   ar
    22    18    17    1
    23    28    27   ar
    24    28    29    1
    25    27     2    1
    26     6     2    1
    27     6     3    1
    28    22    19    1
    29    17     3    1
    30    17    19    1
    31    17    23    1
    32    21    19    1
    33    19    20    1
    34    24    23    1
    35    25    23    1
    36    23    26    1
