@<TRIPOS>MOLECULE
1,2
 49 49 0 0 0
SMALL
GASTEIGER

@<TRIPOS>ATOM
      1 N          11.3971   17.1634   13.9360 N.3     1  UNL1        0.0000
      2 N          13.0495   14.7601   14.8796 N.3     1  UNL1        0.0000
      3 N          11.1965   14.9055   12.7689 N.ar    1  UNL1        0.0000
      4 C          12.6969   17.3559   13.3811 C.3     1  UNL1        0.0000
      5 C          13.9243   15.1591   13.8072 C.3     1  UNL1        0.0000
      6 C          13.3025   16.0706   12.7179 C.3     1  UNL1        0.0000
      7 C          14.4389   16.5089   11.7876 C.3     1  UNL1        0.0000
      8 C          12.2067   15.3348   12.0004 C.ar    1  UNL1        0.0000
      9 C          12.1934   15.1264   10.6210 C.ar    1  UNL1        0.0000
     10 C          11.1286   14.4656   10.0364 C.ar    1  UNL1        0.0000
     11 C          10.0782   14.0489   10.8421 C.ar    1  UNL1        0.0000
     12 C          10.1574   14.2977   12.1994 C.ar    1  UNL1        0.0000
     13 C           9.7482   18.1920   11.6164 C.3     1  UNL1        0.0000
     14 C          10.3176   19.9987   14.0489 C.3     1  UNL1        0.0000
     15 C           8.6481   17.3637   14.4771 C.3     1  UNL1        0.0000
     16 C          15.0466   12.7208   15.8820 C.3     1  UNL1        0.0000
     17 C          14.9127   15.5957   17.0637 C.3     1  UNL1        0.0000
     18 C          12.6033   13.5448   17.5724 C.3     1  UNL1        0.0000
     19 SI         10.0805   18.1717   13.5181 Si      1  UNL1        0.0000
     20 SI         13.8627   14.1804   16.2912 Si      1  UNL1        0.0000
     21 H          12.6848   18.1405   12.6090 H       1  UNL1        0.0000
     22 H          13.4094   17.6745   14.1649 H       1  UNL1        0.0000
     23 H          14.3271   14.2659   13.2943 H       1  UNL1        0.0000
     24 H          14.7927   15.7103   14.2028 H       1  UNL1        0.0000
     25 H          14.9404   15.6483   11.3489 H       1  UNL1        0.0000
     26 H          14.0716   17.1541   10.9927 H       1  UNL1        0.0000
     27 H          15.1743   17.0713   12.3590 H       1  UNL1        0.0000
     28 H          13.0097   15.4634   10.0048 H       1  UNL1        0.0000
     29 H          11.1165   14.2834    8.9720 H       1  UNL1        0.0000
     30 H           9.2260   13.5355   10.4273 H       1  UNL1        0.0000
     31 H           9.3664   13.9901   12.8742 H       1  UNL1        0.0000
     32 H           8.7751   18.6133   11.3874 H       1  UNL1        0.0000
     33 H          10.4887   18.7961   11.0996 H       1  UNL1        0.0000
     34 H           9.7860   17.1940   11.1858 H       1  UNL1        0.0000
     35 H           9.4659   20.6067   13.7627 H       1  UNL1        0.0000
     36 H          10.4277   20.0716   15.1264 H       1  UNL1        0.0000
     37 H          11.2017   20.4377   13.5955 H       1  UNL1        0.0000
     38 H           8.5939   17.7733   15.4811 H       1  UNL1        0.0000
     39 H           8.8145   16.2847   14.5622 H       1  UNL1        0.0000
     40 H           7.6843   17.5285   14.0095 H       1  UNL1        0.0000
     41 H          14.4965   11.8406   15.5635 H       1  UNL1        0.0000
     42 H          15.6270   12.4435   16.7554 H       1  UNL1        0.0000
     43 H          15.7483   12.9790   15.0946 H       1  UNL1        0.0000
     44 H          15.8742   15.7077   16.5704 H       1  UNL1        0.0000
     45 H          14.3791   16.5409   16.9827 H       1  UNL1        0.0000
     46 H          15.1068   15.4223   18.1162 H       1  UNL1        0.0000
     47 H          13.1055   13.3825   18.5195 H       1  UNL1        0.0000
     48 H          12.1631   12.5976   17.2771 H       1  UNL1        0.0000
     49 H          11.8104   14.2703   17.7391 H       1  UNL1        0.0000
@<TRIPOS>BOND
     1    29    10    1
     2    28     9    1
     3    10     9   ar
     4    10    11   ar
     5    30    11    1
     6     9     8   ar
     7    11    12   ar
     8    26     7    1
     9    33    13    1
    10    34    13    1
    11    25     7    1
    12    32    13    1
    13    13    19    1
    14     7    27    1
    15     7     6    1
    16     8     6    1
    17     8     3   ar
    18    12     3   ar
    19    12    31    1
    20    21     4    1
    21     6     4    1
    22     6     5    1
    23    23     5    1
    24     4     1    1
    25     4    22    1
    26    19     1    1
    27    19    14    1
    28    19    15    1
    29    37    14    1
    30    35    14    1
    31     5    24    1
    32     5     2    1
    33    40    15    1
    34    14    36    1
    35    15    39    1
    36    15    38    1
    37     2    20    1
    38    43    16    1
    39    41    16    1
    40    16    20    1
    41    16    42    1
    42    20    17    1
    43    20    18    1
    44    44    17    1
    45    45    17    1
    46    17    46    1
    47    48    18    1
    48    18    49    1
    49    18    47    1
