@<TRIPOS>MOLECULE
1,2
 20 21 0 0 0
SMALL
GASTEIGER

@<TRIPOS>ATOM
      1 N           4.5099    1.8526    8.1797 N.pl3   1  UNL1       -0.2427
      2 N           5.1426    1.7209   10.7788 N.pl3   1  UNL1       -0.2387
      3 C           4.0994    1.6447    6.9415 C.3     1  UNL1        0.0844
      4 H           3.0519    1.8518    6.7611 H       1  UNL1        0.0584
      5 C           4.9465    1.1845    5.9425 C.2     1  UNL1       -0.0600
      6 H           4.5749    1.0213    4.9435 H       1  UNL1        0.0592
      7 C           6.2716    0.9325    6.2618 C.2     1  UNL1       -0.0623
      8 H           6.9581    0.5589    5.5164 H       1  UNL1        0.0616
      9 C           6.7033    1.1624    7.5576 C.2     1  UNL1       -0.0408
     10 H           7.7241    0.9589    7.8414 H       1  UNL1        0.0634
     11 C           5.7852    1.6285    8.4969 C.2     1  UNL1        0.0578
     12 C           6.1374    1.8801    9.9058 C.3     1  UNL1        0.1419
     13 C           7.4097    2.2813   10.3096 C.2     1  UNL1       -0.0507
     14 H           8.1936    2.4336    9.5842 H       1  UNL1        0.0598
     15 C           7.6389    2.5128   11.6559 C.2     1  UNL1       -0.0620
     16 H           8.6118    2.8358   11.9959 H       1  UNL1        0.0616
     17 C           6.5991    2.3285   12.5539 C.2     1  UNL1       -0.0466
     18 H           6.7408    2.4950   13.6098 H       1  UNL1        0.0630
     19 C           5.3621    1.9319   12.0641 C.2     1  UNL1        0.0129
     20 H           4.5062    1.7795   12.7097 H       1  UNL1        0.0798
@<TRIPOS>BOND
     1     6     5    1
     2     8     7    1
     3     5     7    2
     4     5     3    1
     5     7     9    1
     6     4     3    1
     7     3     1    1
     8     9    10    1
     9     9    11    2
    10     1    11    1
    11    11    12    1
    12    14    13    1
    13    12    13    1
    14    12     2    1
    15    13    15    2
    16     2    19    1
    17    15    16    1
    18    15    17    1
    19    19    17    2
    20    19    20    1
    21    17    18    1
