@<TRIPOS>MOLECULE
8,9
 45 46 0 0 0
SMALL
GASTEIGER

@<TRIPOS>ATOM
      1 S           4.9139    6.2617    5.3130 S.O2    1  UNL1        0.0000
      2 S           0.8910    9.3221    7.3091 S.O2    1  UNL1        0.0000
      3 SI          2.6210    7.1047    6.8065 Si      1  UNL1        0.0000
      4 O           5.8296    6.7910    4.3236 O.2     1  UNL1        0.0000
      5 O           5.4926    5.9651    6.6018 O.2     1  UNL1        0.0000
      6 O           1.5046    9.5657    8.5972 O.2     1  UNL1        0.0000
      7 O           0.3494   10.5000    6.6626 O.2     1  UNL1        0.0000
      8 N           3.6240    7.1875    5.3926 N.3     1  UNL1        0.0000
      9 N           1.8210    8.5499    6.2833 N.3     1  UNL1        0.0000
     10 C           3.4820    7.1967    8.5098 C.3     1  UNL1        0.0000
     11 C           1.4622    5.5739    6.7856 C.3     1  UNL1        0.0000
     12 C           4.2430    4.7333    4.6700 C.ar    1  UNL1        0.0000
     13 C           3.8539    4.6595    3.3465 C.ar    1  UNL1        0.0000
     14 C           3.2494    3.5077    2.8744 C.ar    1  UNL1        0.0000
     15 C           3.0340    2.4222    3.7182 C.ar    1  UNL1        0.0000
     16 C           3.4463    2.5097    5.0435 C.ar    1  UNL1        0.0000
     17 C           4.0448    3.6639    5.5205 C.ar    1  UNL1        0.0000
     18 C           2.3923    1.1718    3.1968 C.3     1  UNL1        0.0000
     19 C          -0.4377    8.1644    7.5741 C.ar    1  UNL1        0.0000
     20 C          -0.4384    7.3802    8.7104 C.ar    1  UNL1        0.0000
     21 C          -1.4311    6.4338    8.8847 C.ar    1  UNL1        0.0000
     22 C          -2.4219    6.2603    7.9222 C.ar    1  UNL1        0.0000
     23 C          -2.4072    7.0656    6.7897 C.ar    1  UNL1        0.0000
     24 C          -1.4182    8.0189    6.6161 C.ar    1  UNL1        0.0000
     25 C          -3.4788    5.2149    8.1154 C.3     1  UNL1        0.0000
     26 H           3.1712    6.3761    9.1515 H       1  UNL1        0.0000
     27 H           3.2290    8.1260    9.0125 H       1  UNL1        0.0000
     28 H           4.5597    7.1268    8.3990 H       1  UNL1        0.0000
     29 H           0.4995    5.7997    6.3394 H       1  UNL1        0.0000
     30 H           1.2788    5.2208    7.7953 H       1  UNL1        0.0000
     31 H           1.9072    4.7562    6.2287 H       1  UNL1        0.0000
     32 H           4.0384    5.5032    2.7008 H       1  UNL1        0.0000
     33 H           2.9397    3.4497    1.8406 H       1  UNL1        0.0000
     34 H           3.2926    1.6701    5.7063 H       1  UNL1        0.0000
     35 H           4.3722    3.7567    6.5441 H       1  UNL1        0.0000
     36 H           3.1429    0.5398    2.7219 H       1  UNL1        0.0000
     37 H           1.6347    1.4071    2.4527 H       1  UNL1        0.0000
     38 H           1.9346    0.6038    4.0029 H       1  UNL1        0.0000
     39 H           0.3375    7.5363    9.4422 H       1  UNL1        0.0000
     40 H          -1.4422    5.8189    9.7732 H       1  UNL1        0.0000
     41 H          -3.1753    6.9468    6.0393 H       1  UNL1        0.0000
     42 H          -1.3942    8.6597    5.7501 H       1  UNL1        0.0000
     43 H          -3.0334    4.2211    8.0822 H       1  UNL1        0.0000
     44 H          -4.2382    5.2794    7.3408 H       1  UNL1        0.0000
     45 H          -3.9575    5.3314    9.0861 H       1  UNL1        0.0000
@<TRIPOS>BOND
     1    33    14    1
     2    37    18    1
     3    32    13    1
     4    36    18    1
     5    14    13   ar
     6    14    15   ar
     7    18    15    1
     8    18    38    1
     9    13    12   ar
    10    15    16   ar
    11     4     1    2
    12    12     1    1
    13    12    17   ar
    14    16    17   ar
    15    16    34    1
    16     1     8    1
    17     1     5    2
    18     8     3    1
    19    17    35    1
    20    42    24    1
    21    41    23    1
    22    31    11    1
    23     9     3    1
    24     9     2    1
    25    29    11    1
    26    24    23   ar
    27    24    19   ar
    28     7     2    2
    29    11     3    1
    30    11    30    1
    31    23    22   ar
    32     3    10    1
    33     2    19    1
    34     2     6    2
    35    44    25    1
    36    19    20   ar
    37    22    25    1
    38    22    21   ar
    39    43    25    1
    40    25    45    1
    41    28    10    1
    42    10    27    1
    43    10    26    1
    44    20    21   ar
    45    20    39    1
    46    21    40    1
