@<TRIPOS>MOLECULE
8,9
 45 46 0 0 0
SMALL
GASTEIGER

@<TRIPOS>ATOM
      1 S           9.4104    1.8222    8.8185 S.O2    1  UNL1        0.0000
      2 S           8.3289    2.2566   13.7077 S.O2    1  UNL1        0.0000
      3 SI          8.7643    3.1374   11.1709 Si      1  UNL1        0.0000
      4 O          10.5472    0.9617    9.1231 O.2     1  UNL1        0.0000
      5 O           9.7193    3.1477    8.3558 O.2     1  UNL1        0.0000
      6 O           7.0257    1.6335   13.6218 O.2     1  UNL1        0.0000
      7 O           8.3542    3.6682   13.9829 O.2     1  UNL1        0.0000
      8 N           8.4099    1.8293   10.0594 N.3     1  UNL1        0.0000
      9 N           9.1928    1.9486   12.3945 N.3     1  UNL1        0.0000
     10 C          10.2837    4.2812   11.0301 C.3     1  UNL1        0.0000
     11 C           7.1390    4.1277   11.2797 C.3     1  UNL1        0.0000
     12 C           8.4872    1.0262    7.5028 C.ar    1  UNL1        0.0000
     13 C           7.1218    0.8657    7.6272 C.ar    1  UNL1        0.0000
     14 C           6.4049    0.2697    6.6023 C.ar    1  UNL1        0.0000
     15 C           7.0454   -0.1616    5.4463 C.ar    1  UNL1        0.0000
     16 C           8.4215    0.0162    5.3354 C.ar    1  UNL1        0.0000
     17 C           9.1404    0.6095    6.3577 C.ar    1  UNL1        0.0000
     18 C           6.2782   -0.8203    4.3401 C.3     1  UNL1        0.0000
     19 C           9.2349    1.4462   15.0245 C.ar    1  UNL1        0.0000
     20 C          10.6101    1.5764   15.0460 C.ar    1  UNL1        0.0000
     21 C          11.3388    0.9836   16.0620 C.ar    1  UNL1        0.0000
     22 C          10.6995    0.2611   17.0651 C.ar    1  UNL1        0.0000
     23 C           9.3139    0.1459   17.0301 C.ar    1  UNL1        0.0000
     24 C           8.5817    0.7386   16.0146 C.ar    1  UNL1        0.0000
     25 C          11.4918   -0.3994   18.1521 C.3     1  UNL1        0.0000
     26 H          11.2048    3.7049   10.9864 H       1  UNL1        0.0000
     27 H          10.3421    4.9692   11.8692 H       1  UNL1        0.0000
     28 H          10.2164    4.8487   10.1093 H       1  UNL1        0.0000
     29 H           6.9294    4.6998   10.3804 H       1  UNL1        0.0000
     30 H           7.2102    4.8066   12.1207 H       1  UNL1        0.0000
     31 H           6.3015    3.4627   11.4731 H       1  UNL1        0.0000
     32 H           6.6463    1.2126    8.5308 H       1  UNL1        0.0000
     33 H           5.3355    0.1436    6.6971 H       1  UNL1        0.0000
     34 H           8.9278   -0.3095    4.4383 H       1  UNL1        0.0000
     35 H          10.2066    0.7573    6.2850 H       1  UNL1        0.0000
     36 H           6.4345   -1.8989    4.3670 H       1  UNL1        0.0000
     37 H           6.6164   -0.4599    3.3712 H       1  UNL1        0.0000
     38 H           5.2130   -0.6274    4.4357 H       1  UNL1        0.0000
     39 H          11.0844    2.1416   14.2600 H       1  UNL1        0.0000
     40 H          12.4143    1.0845   16.0848 H       1  UNL1        0.0000
     41 H           8.8061   -0.4070   17.8075 H       1  UNL1        0.0000
     42 H           7.5065    0.6650   15.9751 H       1  UNL1        0.0000
     43 H          11.7614   -1.4126   17.8525 H       1  UNL1        0.0000
     44 H          10.9130   -0.4633   19.0700 H       1  UNL1        0.0000
     45 H          12.4099    0.1479   18.3501 H       1  UNL1        0.0000
@<TRIPOS>BOND
     1    37    18    1
     2    18    36    1
     3    18    38    1
     4    18    15    1
     5    34    16    1
     6    16    15   ar
     7    16    17   ar
     8    15    14   ar
     9    35    17    1
    10    17    12   ar
    11    14    33    1
    12    14    13   ar
    13    12    13   ar
    14    12     1    1
    15    13    32    1
    16     5     1    2
    17     1     4    2
    18     1     8    1
    19     8     3    1
    20    28    10    1
    21    29    11    1
    22    26    10    1
    23    10     3    1
    24    10    27    1
    25     3    11    1
    26     3     9    1
    27    11    31    1
    28    11    30    1
    29     9     2    1
    30     6     2    2
    31     2     7    2
    32     2    19    1
    33    39    20    1
    34    19    20   ar
    35    19    24   ar
    36    20    21   ar
    37    42    24    1
    38    24    23   ar
    39    21    40    1
    40    21    22   ar
    41    23    22   ar
    42    23    41    1
    43    22    25    1
    44    43    25    1
    45    25    45    1
    46    25    44    1
