@<TRIPOS>MOLECULE
8,9
 45 46 0 0 0
SMALL
GASTEIGER

@<TRIPOS>ATOM
      1 S           7.6881    1.4830   13.0335 S.O2    1  UNL1        0.0000
      2 S           3.3860    4.3070   11.4560 S.O2    1  UNL1        0.0000
      3 SI          5.8492    3.0921   11.5986 Si      1  UNL1        0.0000
      4 O           8.2107    1.6183   14.3788 O.2     1  UNL1        0.0000
      5 O           8.4878    2.0378   11.9681 O.2     1  UNL1        0.0000
      6 O           2.8292    5.2452   12.4115 O.2     1  UNL1        0.0000
      7 O           4.1455    4.8660   10.3658 O.2     1  UNL1        0.0000
      8 N           6.2172    2.0319   12.9156 N.3     1  UNL1        0.0000
      9 N           4.1966    3.1364   12.1521 N.3     1  UNL1        0.0000
     10 C           6.8433    4.7171   11.7387 C.3     1  UNL1        0.0000
     11 C           6.0294    2.3301    9.8592 C.3     1  UNL1        0.0000
     12 C           7.5370   -0.2725   12.7254 C.ar    1  UNL1        0.0000
     13 C           7.4307   -0.7207   11.4235 C.ar    1  UNL1        0.0000
     14 C           7.2729   -2.0716   11.1735 C.ar    1  UNL1        0.0000
     15 C           7.2265   -2.9865   12.2226 C.ar    1  UNL1        0.0000
     16 C           7.3464   -2.5183   13.5256 C.ar    1  UNL1        0.0000
     17 C           7.4972   -1.1639   13.7775 C.ar    1  UNL1        0.0000
     18 C           7.0710   -4.4520   11.9399 C.3     1  UNL1        0.0000
     19 C           1.9839    3.4587   10.7223 C.ar    1  UNL1        0.0000
     20 C           0.7036    3.6406   11.2083 C.ar    1  UNL1        0.0000
     21 C          -0.3533    2.9498   10.6402 C.ar    1  UNL1        0.0000
     22 C          -0.1397    2.0745    9.5810 C.ar    1  UNL1        0.0000
     23 C           1.1550    1.9107    9.0977 C.ar    1  UNL1        0.0000
     24 C           2.2132    2.5995    9.6660 C.ar    1  UNL1        0.0000
     25 C          -1.2820    1.3105    8.9818 C.3     1  UNL1        0.0000
     26 H           6.7077    5.1955   12.7053 H       1  UNL1        0.0000
     27 H           6.5243    5.4167   10.9733 H       1  UNL1        0.0000
     28 H           7.9007    4.5038   11.6140 H       1  UNL1        0.0000
     29 H           7.0843    2.1836    9.6522 H       1  UNL1        0.0000
     30 H           5.6310    3.0182    9.1206 H       1  UNL1        0.0000
     31 H           5.5197    1.3758    9.7671 H       1  UNL1        0.0000
     32 H           7.4883    0.0033   10.6286 H       1  UNL1        0.0000
     33 H           7.1920   -2.4296   10.1564 H       1  UNL1        0.0000
     34 H           7.3312   -3.2226   14.3461 H       1  UNL1        0.0000
     35 H           7.6010   -0.7809   14.7798 H       1  UNL1        0.0000
     36 H           6.3069   -4.6227   11.1835 H       1  UNL1        0.0000
     37 H           6.8038   -4.9984   12.8411 H       1  UNL1        0.0000
     38 H           8.0081   -4.8591   11.5609 H       1  UNL1        0.0000
     39 H           0.5545    4.3364   12.0188 H       1  UNL1        0.0000
     40 H          -1.3573    3.0981   11.0120 H       1  UNL1        0.0000
     41 H           1.3288    1.2461    8.2628 H       1  UNL1        0.0000
     42 H           3.2215    2.5021    9.2990 H       1  UNL1        0.0000
     43 H          -1.4450    0.3861    9.5371 H       1  UNL1        0.0000
     44 H          -1.0751    1.0505    7.9469 H       1  UNL1        0.0000
     45 H          -2.1998    1.8919    9.0230 H       1  UNL1        0.0000
@<TRIPOS>BOND
     1    44    25    1
     2    41    23    1
     3    25    45    1
     4    25    43    1
     5    25    22    1
     6    23    22   ar
     7    23    24   ar
     8    30    11    1
     9    42    24    1
    10    22    21   ar
    11    29    11    1
    12    24    19   ar
    13    31    11    1
    14    11     3    1
    15    33    14    1
    16     7     2    2
    17    32    13    1
    18    21    40    1
    19    21    20   ar
    20    19    20   ar
    21    19     2    1
    22    27    10    1
    23    14    13   ar
    24    14    15   ar
    25    36    18    1
    26    20    39    1
    27    13    12   ar
    28     2     9    1
    29     2     6    2
    30    38    18    1
    31     3    10    1
    32     3     9    1
    33     3     8    1
    34    28    10    1
    35    10    26    1
    36    18    15    1
    37    18    37    1
    38     5     1    2
    39    15    16   ar
    40    12     1    1
    41    12    17   ar
    42     8     1    1
    43     1     4    2
    44    16    17   ar
    45    16    34    1
    46    17    35    1
