@<TRIPOS>MOLECULE
8,9
 45 46 0 0 0
SMALL
GASTEIGER

@<TRIPOS>ATOM
      1 S           8.4430   -0.6438   19.0862 S.O2    1  UNL1        0.0000
      2 S           6.9373    3.0295   15.3555 S.O2    1  UNL1        0.0000
      3 SI          7.3782    1.7186   17.8573 Si      1  UNL1        0.0000
      4 O           8.0471   -2.0354   19.0822 O.2     1  UNL1        0.0000
      5 O           8.0130    0.1645   20.1976 O.2     1  UNL1        0.0000
      6 O           6.1669    2.7321   14.1674 O.2     1  UNL1        0.0000
      7 O           6.3472    3.9203   16.3212 O.2     1  UNL1        0.0000
      8 N           7.3344    1.6912   16.1188 N.3     1  UNL1        0.0000
      9 N           7.9573    0.0821   17.7557 N.3     1  UNL1        0.0000
     10 C           5.6742    1.8678   18.6899 C.3     1  UNL1        0.0000
     11 C           8.6612    2.9523   18.5402 C.3     1  UNL1        0.0000
     12 C          10.2177   -0.5778   18.9413 C.ar    1  UNL1        0.0000
     13 C          10.9415    0.3814   19.6181 C.ar    1  UNL1        0.0000
     14 C          12.3031    0.4952   19.3926 C.ar    1  UNL1        0.0000
     15 C          12.9438   -0.3421   18.4867 C.ar    1  UNL1        0.0000
     16 C          12.1960   -1.3068   17.8174 C.ar    1  UNL1        0.0000
     17 C          10.8368   -1.4241   18.0409 C.ar    1  UNL1        0.0000
     18 C          14.4111   -0.2070   18.2148 C.3     1  UNL1        0.0000
     19 C           8.5117    3.6840   14.8367 C.ar    1  UNL1        0.0000
     20 C           9.2182    3.0040   13.8629 C.ar    1  UNL1        0.0000
     21 C          10.4855    3.4327   13.5152 C.ar    1  UNL1        0.0000
     22 C          11.0543    4.5417   14.1366 C.ar    1  UNL1        0.0000
     23 C          10.3247    5.2149   15.1091 C.ar    1  UNL1        0.0000
     24 C           9.0562    4.7856   15.4626 C.ar    1  UNL1        0.0000
     25 C          12.4358    4.9851   13.7618 C.3     1  UNL1        0.0000
     26 H           5.2679    2.8592   18.5168 H       1  UNL1        0.0000
     27 H           5.7726    1.7023   19.7580 H       1  UNL1        0.0000
     28 H           4.9629    1.1418   18.3040 H       1  UNL1        0.0000
     29 H           9.6301    2.8576   18.0531 H       1  UNL1        0.0000
     30 H           8.7946    2.7883   19.6042 H       1  UNL1        0.0000
     31 H           8.3048    3.9667   18.3959 H       1  UNL1        0.0000
     32 H          10.4256    1.0162   20.3202 H       1  UNL1        0.0000
     33 H          12.8745    1.2424   19.9243 H       1  UNL1        0.0000
     34 H          12.6871   -1.9656   17.1160 H       1  UNL1        0.0000
     35 H          10.2426   -2.1709   17.5388 H       1  UNL1        0.0000
     36 H          14.5657    0.2585   17.2416 H       1  UNL1        0.0000
     37 H          14.8903   -1.1835   18.1965 H       1  UNL1        0.0000
     38 H          14.8936    0.4082   18.9694 H       1  UNL1        0.0000
     39 H           8.7572    2.1524   13.3872 H       1  UNL1        0.0000
     40 H          11.0447    2.9058   12.7558 H       1  UNL1        0.0000
     41 H          10.7525    6.0808   15.5934 H       1  UNL1        0.0000
     42 H           8.4704    5.2946   16.2111 H       1  UNL1        0.0000
     43 H          13.1695    4.2676   14.1282 H       1  UNL1        0.0000
     44 H          12.6632    5.9580   14.1889 H       1  UNL1        0.0000
     45 H          12.5392    5.0430   12.6801 H       1  UNL1        0.0000
@<TRIPOS>BOND
     1    45    25    1
     2    40    21    1
     3    39    20    1
     4    21    20   ar
     5    21    22   ar
     6    25    43    1
     7    25    22    1
     8    25    44    1
     9    20    19   ar
    10    22    23   ar
    11     6     2    2
    12    19     2    1
    13    19    24   ar
    14    23    24   ar
    15    23    41    1
    16     2     8    1
    17     2     7    2
    18    24    42    1
    19     8     3    1
    20    34    16    1
    21    36    18    1
    22    35    17    1
    23     9     3    1
    24     9     1    1
    25    16    17   ar
    26    16    15   ar
    27     3    11    1
    28     3    10    1
    29    17    12   ar
    30    29    11    1
    31    37    18    1
    32    18    15    1
    33    18    38    1
    34    28    10    1
    35    31    11    1
    36    15    14   ar
    37    26    10    1
    38    11    30    1
    39    10    27    1
    40    12     1    1
    41    12    13   ar
    42     4     1    2
    43     1     5    2
    44    14    13   ar
    45    14    33    1
    46    13    32    1
