@<TRIPOS>MOLECULE
5,6
 54 53 0 0 0
SMALL
GASTEIGER

@<TRIPOS>ATOM
      1 SI         -2.0401    1.4871    4.3921 Si      1  UNL1        0.0000
      2 SI          1.5410    2.3750    8.0844 Si      1  UNL1        0.0000
      3 SI          2.2362    2.1721    1.4611 Si      1  UNL1        0.0000
      4 N          -0.5228    0.5854    4.5724 N.3     1  UNL1        0.0000
      5 N           1.0591    1.6829    6.5978 N.3     1  UNL1        0.0000
      6 N           1.4362    1.5632    2.8429 N.3     1  UNL1        0.0000
      7 C          -0.3561   -0.1269    5.8390 C.3     1  UNL1        0.0000
      8 C           0.9690    0.2426    6.5239 C.3     1  UNL1        0.0000
      9 C          -0.1120   -0.2060    3.4129 C.3     1  UNL1        0.0000
     10 C           1.3245    0.1295    2.9822 C.3     1  UNL1        0.0000
     11 C          -2.2207    2.5344    5.9771 C.3     1  UNL1        0.0000
     12 C          -1.9168    2.4118    2.7270 C.3     1  UNL1        0.0000
     13 C          -3.5047    0.2432    4.3020 C.3     1  UNL1        0.0000
     14 C           1.8017    4.2528    7.8634 C.3     1  UNL1        0.0000
     15 C           3.1364    1.6019    8.8325 C.3     1  UNL1        0.0000
     16 C           0.1772    2.1310    9.4302 C.3     1  UNL1        0.0000
     17 C           2.4326    4.0635    1.6279 C.3     1  UNL1        0.0000
     18 C           3.9594    1.3806    1.1334 C.3     1  UNL1        0.0000
     19 C           1.2105    1.8327   -0.1394 C.3     1  UNL1        0.0000
     20 H          -0.4180   -1.2128    5.6823 H       1  UNL1        0.0000
     21 H          -1.1590    0.1550    6.5255 H       1  UNL1        0.0000
     22 H           0.9800   -0.2353    7.5150 H       1  UNL1        0.0000
     23 H           1.8209   -0.1880    5.9534 H       1  UNL1        0.0000
     24 H          -0.7617    0.0246    2.5643 H       1  UNL1        0.0000
     25 H          -0.2089   -1.2799    3.6242 H       1  UNL1        0.0000
     26 H           2.0445   -0.2626    3.7338 H       1  UNL1        0.0000
     27 H           1.5280   -0.4057    2.0425 H       1  UNL1        0.0000
     28 H          -2.4494    3.5688    5.7417 H       1  UNL1        0.0000
     29 H          -3.0232    2.1670    6.6113 H       1  UNL1        0.0000
     30 H          -1.2917    2.5219    6.5526 H       1  UNL1        0.0000
     31 H          -2.1847    3.4576    2.8381 H       1  UNL1        0.0000
     32 H          -0.8968    2.3696    2.3379 H       1  UNL1        0.0000
     33 H          -2.5865    1.9883    1.9832 H       1  UNL1        0.0000
     34 H          -4.4501    0.7617    4.1843 H       1  UNL1        0.0000
     35 H          -3.4040   -0.4386    3.4627 H       1  UNL1        0.0000
     36 H          -3.5776   -0.3597    5.2024 H       1  UNL1        0.0000
     37 H           2.3056    4.6574    8.7352 H       1  UNL1        0.0000
     38 H           2.4191    4.4719    6.9947 H       1  UNL1        0.0000
     39 H           0.8624    4.7874    7.7584 H       1  UNL1        0.0000
     40 H           3.4545    2.1217    9.7307 H       1  UNL1        0.0000
     41 H           2.9806    0.5602    9.0994 H       1  UNL1        0.0000
     42 H           3.9556    1.6382    8.1201 H       1  UNL1        0.0000
     43 H           0.5132    2.4941   10.3953 H       1  UNL1        0.0000
     44 H          -0.7374    2.6623    9.1831 H       1  UNL1        0.0000
     45 H          -0.0771    1.0817    9.5506 H       1  UNL1        0.0000
     46 H           3.1063    4.4314    0.8608 H       1  UNL1        0.0000
     47 H           1.4886    4.5857    1.5034 H       1  UNL1        0.0000
     48 H           2.8514    4.3388    2.5939 H       1  UNL1        0.0000
     49 H           4.4698    1.8522    0.2997 H       1  UNL1        0.0000
     50 H           4.5990    1.4684    2.0070 H       1  UNL1        0.0000
     51 H           3.8671    0.3233    0.9002 H       1  UNL1        0.0000
     52 H           1.7509    2.1556   -1.0224 H       1  UNL1        0.0000
     53 H           1.0006    0.7737   -0.2586 H       1  UNL1        0.0000
     54 H           0.2584    2.3555   -0.1310 H       1  UNL1        0.0000
@<TRIPOS>BOND
     1    52    19    1
     2    53    19    1
     3    19    54    1
     4    19     3    1
     5    49    18    1
     6    46    17    1
     7    51    18    1
     8    18     3    1
     9    18    50    1
    10     3    17    1
    11     3     6    1
    12    47    17    1
    13    17    48    1
    14    33    12    1
    15    27    10    1
    16    32    12    1
    17    24     9    1
    18    12    31    1
    19    12     1    1
    20     6    10    1
    21    10     9    1
    22    10    26    1
    23     9    25    1
    24     9     4    1
    25    35    13    1
    26    34    13    1
    27    13     1    1
    28    13    36    1
    29     1     4    1
    30     1    11    1
    31     4     7    1
    32    20     7    1
    33    28    11    1
    34     7     8    1
    35     7    21    1
    36    23     8    1
    37    11    30    1
    38    11    29    1
    39     8     5    1
    40     8    22    1
    41     5     2    1
    42    38    14    1
    43    39    14    1
    44    14     2    1
    45    14    37    1
    46     2    15    1
    47     2    16    1
    48    42    15    1
    49    15    41    1
    50    15    40    1
    51    44    16    1
    52    16    45    1
    53    16    43    1
