@<TRIPOS>MOLECULE
3,4
 40 40 0 0 0
SMALL
GASTEIGER

@<TRIPOS>ATOM
      1 SI         14.8357    3.1482    8.3849 Si      1  UNL1        0.0000
      2 SI         11.8367    7.6813    9.1083 Si      1  UNL1        0.0000
      3 N          13.2285    6.6692    8.9581 N.3     1  UNL1        0.0000
      4 N          14.4499    4.8126    8.6467 N.3     1  UNL1        0.0000
      5 C          13.2615    5.3754    8.7198 C.3     1  UNL1        0.0000
      6 C          12.0190    4.5802    8.5623 C.ar    1  UNL1        0.0000
      7 C          11.3939    4.4588    7.3284 C.ar    1  UNL1        0.0000
      8 C          10.2369    3.7094    7.2072 C.ar    1  UNL1        0.0000
      9 C           9.6967    3.0796    8.3160 C.ar    1  UNL1        0.0000
     10 C          10.3181    3.1981    9.5483 C.ar    1  UNL1        0.0000
     11 C          11.4764    3.9444    9.6725 C.ar    1  UNL1        0.0000
     12 C          16.5190    3.2061    7.4692 C.3     1  UNL1        0.0000
     13 C          13.6540    2.1024    7.3004 C.3     1  UNL1        0.0000
     14 C          14.9748    2.2715   10.0839 C.3     1  UNL1        0.0000
     15 C          10.5929    7.6141    7.6523 C.3     1  UNL1        0.0000
     16 C          10.8615    7.3095   10.7159 C.3     1  UNL1        0.0000
     17 C          12.5694    9.4474    9.1510 C.3     1  UNL1        0.0000
     18 H          11.8207    4.9502    6.4668 H       1  UNL1        0.0000
     19 H           9.7548    3.6156    6.2451 H       1  UNL1        0.0000
     20 H           8.7935    2.4954    8.2199 H       1  UNL1        0.0000
     21 H           9.8989    2.7063   10.4141 H       1  UNL1        0.0000
     22 H          11.9707    4.0415   10.6287 H       1  UNL1        0.0000
     23 H          17.1329    2.3519    7.7345 H       1  UNL1        0.0000
     24 H          17.0719    4.1106    7.7162 H       1  UNL1        0.0000
     25 H          16.3857    3.1803    6.3916 H       1  UNL1        0.0000
     26 H          14.1185    1.1541    7.0493 H       1  UNL1        0.0000
     27 H          13.4103    2.6041    6.3693 H       1  UNL1        0.0000
     28 H          12.7203    1.8865    7.8091 H       1  UNL1        0.0000
     29 H          15.5369    1.3469   10.0050 H       1  UNL1        0.0000
     30 H          15.4730    2.9056   10.8119 H       1  UNL1        0.0000
     31 H          13.9932    2.0233   10.4774 H       1  UNL1        0.0000
     32 H           9.9309    8.4736    7.6818 H       1  UNL1        0.0000
     33 H          11.0967    7.6238    6.6905 H       1  UNL1        0.0000
     34 H           9.9762    6.7222    7.6927 H       1  UNL1        0.0000
     35 H          10.1470    8.0969   10.9312 H       1  UNL1        0.0000
     36 H          11.5237    7.2206   11.5725 H       1  UNL1        0.0000
     37 H          10.3088    6.3784   10.6298 H       1  UNL1        0.0000
     38 H          11.8646   10.1453    9.5909 H       1  UNL1        0.0000
     39 H          13.4857    9.4795    9.7356 H       1  UNL1        0.0000
     40 H          12.7966    9.8078    8.1520 H       1  UNL1        0.0000
@<TRIPOS>BOND
     1    19     8    1
     2    27    13    1
     3    25    12    1
     4    18     7    1
     5    33    15    1
     6    26    13    1
     7     8     7   ar
     8     8     9   ar
     9    13    28    1
    10    13     1    1
    11     7     6   ar
    12    12    24    1
    13    12    23    1
    14    12     1    1
    15    15    32    1
    16    15    34    1
    17    15     2    1
    18    40    17    1
    19    20     9    1
    20     9    10   ar
    21     1     4    1
    22     1    14    1
    23     6     5    1
    24     6    11   ar
    25     4     5    1
    26     5     3    1
    27     3     2    1
    28     2    17    1
    29     2    16    1
    30    17    38    1
    31    17    39    1
    32    10    11   ar
    33    10    21    1
    34    11    22    1
    35    29    14    1
    36    14    31    1
    37    14    30    1
    38    37    16    1
    39    16    35    1
    40    16    36    1
