@<TRIPOS>MOLECULE
3,4
 40 40 0 0 0
SMALL
GASTEIGER

@<TRIPOS>ATOM
      1 SI          3.4421    2.8530    6.3167 Si      1  UNL1        0.0000
      2 SI          2.3802    2.7371    0.9684 Si      1  UNL1        0.0000
      3 N           2.8554    3.3916    4.7749 N.3     1  UNL1        0.0000
      4 N           2.4223    3.3451    2.5920 N.3     1  UNL1        0.0000
      5 C           2.8254    2.6937    3.6597 C.3     1  UNL1        0.0000
      6 C           3.1257    1.2404    3.6330 C.ar    1  UNL1        0.0000
      7 C           2.0742    0.3655    3.8861 C.ar    1  UNL1        0.0000
      8 C           2.2881   -1.0011    3.8725 C.ar    1  UNL1        0.0000
      9 C           3.5519   -1.5027    3.6064 C.ar    1  UNL1        0.0000
     10 C           4.6004   -0.6341    3.3553 C.ar    1  UNL1        0.0000
     11 C           4.3905    0.7345    3.3682 C.ar    1  UNL1        0.0000
     12 C           2.0849    4.2267   -0.1937 C.3     1  UNL1        0.0000
     13 C           4.0471    1.9748    0.4069 C.3     1  UNL1        0.0000
     14 C           1.0122    1.4216    0.7012 C.3     1  UNL1        0.0000
     15 C           2.2050    1.6815    7.1957 C.3     1  UNL1        0.0000
     16 C           5.1296    1.9474    6.2467 C.3     1  UNL1        0.0000
     17 C           3.7531    4.4266    7.3619 C.3     1  UNL1        0.0000
     18 H           1.0927    0.7740    4.0908 H       1  UNL1        0.0000
     19 H           1.4689   -1.6774    4.0691 H       1  UNL1        0.0000
     20 H           3.7190   -2.5696    3.5953 H       1  UNL1        0.0000
     21 H           5.5866   -1.0239    3.1490 H       1  UNL1        0.0000
     22 H           5.2075    1.4130    3.1761 H       1  UNL1        0.0000
     23 H           2.1834    3.9093   -1.2268 H       1  UNL1        0.0000
     24 H           2.8082    5.0182   -0.0248 H       1  UNL1        0.0000
     25 H           1.0942    4.6540   -0.0820 H       1  UNL1        0.0000
     26 H           4.1704    0.9597    0.7692 H       1  UNL1        0.0000
     27 H           4.8944    2.5576    0.7554 H       1  UNL1        0.0000
     28 H           4.0975    1.9438   -0.6767 H       1  UNL1        0.0000
     29 H           0.8846    1.2057   -0.3547 H       1  UNL1        0.0000
     30 H           1.2589    0.4887    1.2003 H       1  UNL1        0.0000
     31 H           0.0545    1.7587    1.0865 H       1  UNL1        0.0000
     32 H           1.2023    2.0970    7.2153 H       1  UNL1        0.0000
     33 H           2.1540    0.7189    6.6944 H       1  UNL1        0.0000
     34 H           2.5076    1.5004    8.2221 H       1  UNL1        0.0000
     35 H           5.0256    0.9148    5.9314 H       1  UNL1        0.0000
     36 H           5.8214    2.4346    5.5663 H       1  UNL1        0.0000
     37 H           5.5881    1.9453    7.2305 H       1  UNL1        0.0000
     38 H           3.6824    4.1939    8.4194 H       1  UNL1        0.0000
     39 H           4.7493    4.8221    7.1876 H       1  UNL1        0.0000
     40 H           3.0427    5.2183    7.1473 H       1  UNL1        0.0000
@<TRIPOS>BOND
     1    23    12    1
     2    28    13    1
     3    29    14    1
     4    12    25    1
     5    12    24    1
     6    12     2    1
     7    13    27    1
     8    13    26    1
     9    13     2    1
    10    14     2    1
    11    14    31    1
    12    14    30    1
    13     2     4    1
    14     4     5    1
    15    21    10    1
    16    22    11    1
    17    10    11   ar
    18    10     9   ar
    19    11     6   ar
    20    20     9    1
    21     9     8   ar
    22     6     5    1
    23     6     7   ar
    24     5     3    1
    25     8     7   ar
    26     8    19    1
    27     7    18    1
    28     3     1    1
    29    36    16    1
    30    35    16    1
    31    16     1    1
    32    16    37    1
    33     1    15    1
    34     1    17    1
    35    33    15    1
    36    40    17    1
    37    39    17    1
    38    15    32    1
    39    15    34    1
    40    17    38    1
