@<TRIPOS>MOLECULE
2,9
 31 32 0 0 0
SMALL
GASTEIGER

@<TRIPOS>ATOM
      1 N           3.6734    4.4687    8.0027 N.pl3   1  UNL1        0.0000
      2 N           2.8618    4.2993    6.9511 N.3     1  UNL1        0.0000
      3 C           2.2815    5.4722    6.6927 C.3     1  UNL1        0.0000
      4 C           2.7273    6.4153    7.6175 C.2     1  UNL1        0.0000
      5 C           3.6152    5.7361    8.4358 C.2     1  UNL1        0.0000
      6 C           1.3246    5.7128    5.5776 C.3     1  UNL1        0.0000
      7 C           4.3826    6.2627    9.5955 C.3     1  UNL1        0.0000
      8 N           5.4144    2.8969    7.2634 N.pl3   1  UNL1        0.0000
      9 N           4.8408    2.2880    6.2172 N.3     1  UNL1        0.0000
     10 C           5.8135    1.9529    5.3685 C.3     1  UNL1        0.0000
     11 C           7.0417    2.3657    5.8859 C.2     1  UNL1        0.0000
     12 C           6.7440    2.9662    7.0960 C.2     1  UNL1        0.0000
     13 C           5.6164    1.2235    4.0842 C.3     1  UNL1        0.0000
     14 C           7.6825    3.5906    8.0658 C.3     1  UNL1        0.0000
     15 B           4.5846    3.3256    8.4817 B       1  UNL1        0.0000
     16 H           2.4463    7.4478    7.6789 H       1  UNL1        0.0000
     17 H           0.3342    5.3332    5.8273 H       1  UNL1        0.0000
     18 H           1.6674    5.2249    4.6665 H       1  UNL1        0.0000
     19 H           1.2432    6.7829    5.3969 H       1  UNL1        0.0000
     20 H           5.4539    6.2024    9.4092 H       1  UNL1        0.0000
     21 H           4.1673    5.6866   10.4940 H       1  UNL1        0.0000
     22 H           4.1137    7.3023    9.7667 H       1  UNL1        0.0000
     23 H           8.0085    2.2419    5.4396 H       1  UNL1        0.0000
     24 H           5.4246    1.9213    3.2682 H       1  UNL1        0.0000
     25 H           4.7812    0.5318    4.1619 H       1  UNL1        0.0000
     26 H           6.5229    0.6691    3.8445 H       1  UNL1        0.0000
     27 H           7.6450    3.0771    9.0252 H       1  UNL1        0.0000
     28 H           7.4235    4.6350    8.2327 H       1  UNL1        0.0000
     29 H           8.6959    3.5369    7.6749 H       1  UNL1        0.0000
     30 H           3.9057    2.3909    8.8123 H       1  UNL1        0.0000
     31 H           5.2923    3.7030    9.3542 H       1  UNL1        0.0000
@<TRIPOS>BOND
     1    24    13    1
     2    26    13    1
     3    13    25    1
     4    13    10    1
     5    18     6    1
     6    10    11    1
     7    10     9    1
     8    19     6    1
     9    23    11    1
    10     6    17    1
    11     6     3    1
    12    11    12    2
    13     9     8    1
    14     3     2    1
    15     3     4    1
    16     2     1    1
    17    12     8    1
    18    12    14    1
    19     8    15    1
    20     4    16    1
    21     4     5    2
    22    29    14    1
    23     1     5    1
    24     1    15    1
    25    14    28    1
    26    14    27    1
    27     5     7    1
    28    15    30    1
    29    15    31    1
    30    20     7    1
    31     7    22    1
    32     7    21    1
