@<TRIPOS>MOLECULE
2,3
 27 27 0 0 0
SMALL
GASTEIGER

@<TRIPOS>ATOM
      1 SI          9.3855    1.0310    2.2655 Si      1  UNL1        0.0000
      2 N          10.4386    4.3398    3.9855 N.pl3   1  UNL1        0.0000
      3 N           9.6592    2.5900    2.9093 N.3     1  UNL1        0.0000
      4 C          10.4125    2.9816    3.9287 C.3     1  UNL1        0.0000
      5 C          11.1218    2.2129    4.8704 C.2     1  UNL1        0.0000
      6 H          11.0565    1.1384    4.8201 H       1  UNL1        0.0000
      7 C          11.8708    2.8448    5.8361 C.2     1  UNL1        0.0000
      8 C          11.8958    4.2479    5.8527 C.2     1  UNL1        0.0000
      9 H          12.4773    4.7742    6.5935 H       1  UNL1        0.0000
     10 C          11.1534    4.9417    4.9228 C.2     1  UNL1        0.0000
     11 H          11.1312    6.0239    4.9212 H       1  UNL1        0.0000
     12 C          12.6367    2.0721    6.8664 C.3     1  UNL1        0.0000
     13 H          12.5881    1.0046    6.6675 H       1  UNL1        0.0000
     14 H          12.2246    2.2606    7.8577 H       1  UNL1        0.0000
     15 H          13.6808    2.3821    6.8766 H       1  UNL1        0.0000
     16 C           8.8913    1.2894    0.4411 C.3     1  UNL1        0.0000
     17 H           7.8130    1.3164    0.3359 H       1  UNL1        0.0000
     18 H           9.2632    0.4938   -0.1963 H       1  UNL1        0.0000
     19 H           9.2786    2.2303    0.0665 H       1  UNL1        0.0000
     20 C           8.0043    0.0589    3.1627 C.3     1  UNL1        0.0000
     21 H           8.2768   -0.1772    4.1868 H       1  UNL1        0.0000
     22 H           7.7773   -0.8749    2.6565 H       1  UNL1        0.0000
     23 H           7.0953    0.6518    3.1934 H       1  UNL1        0.0000
     24 C          10.9780   -0.0451    2.2794 C.3     1  UNL1        0.0000
     25 H          11.8662    0.5635    2.1407 H       1  UNL1        0.0000
     26 H          10.9560   -0.7809    1.4820 H       1  UNL1        0.0000
     27 H          11.0945   -0.5880    3.2121 H       1  UNL1        0.0000
@<TRIPOS>BOND
     1    18    16    1
     2    19    16    1
     3    17    16    1
     4    16     1    1
     5    26    24    1
     6    25    24    1
     7     1    24    1
     8     1     3    1
     9     1    20    1
    10    24    27    1
    11    22    20    1
    12     3     4    1
    13    20    23    1
    14    20    21    1
    15     4     2    1
    16     4     5    1
    17     2    10    1
    18     6     5    1
    19     5     7    2
    20    11    10    1
    21    10     8    2
    22     7     8    1
    23     7    12    1
    24     8     9    1
    25    13    12    1
    26    12    15    1
    27    12    14    1
