@<TRIPOS>MOLECULE
2,3
 27 27 0 0 0
SMALL
GASTEIGER

@<TRIPOS>ATOM
      1 SI          7.2366    3.8446    5.6250 Si      1  UNL1        0.0000
      2 N           7.3742    4.0122    1.7561 N.pl3   1  UNL1        0.0000
      3 N           7.5363    3.9582    3.9466 N.3     1  UNL1        0.0000
      4 C           6.7920    3.5930    2.9110 C.3     1  UNL1        0.0000
      5 C           5.5761    2.8847    2.8824 C.2     1  UNL1        0.0000
      6 H           5.1546    2.5367    3.8112 H       1  UNL1        0.0000
      7 C           4.9591    2.6444    1.6763 C.2     1  UNL1        0.0000
      8 C           5.5740    3.1119    0.5046 C.2     1  UNL1        0.0000
      9 H           5.1140    2.9442   -0.4567 H       1  UNL1        0.0000
     10 C           6.7808    3.7694    0.5983 C.2     1  UNL1        0.0000
     11 H           7.2951    4.1209   -0.2868 H       1  UNL1        0.0000
     12 C           3.6674    1.8896    1.5918 C.3     1  UNL1        0.0000
     13 H           3.2817    1.6666    2.5833 H       1  UNL1        0.0000
     14 H           3.8164    0.9518    1.0570 H       1  UNL1        0.0000
     15 H           2.9235    2.4685    1.0459 H       1  UNL1        0.0000
     16 C           8.2823    5.2128    6.4454 C.3     1  UNL1        0.0000
     17 H           9.2378    4.8201    6.7728 H       1  UNL1        0.0000
     18 H           7.7871    5.6365    7.3130 H       1  UNL1        0.0000
     19 H           8.4830    6.0168    5.7462 H       1  UNL1        0.0000
     20 C           5.3966    4.1971    6.0547 C.3     1  UNL1        0.0000
     21 H           4.9615    4.9142    5.3658 H       1  UNL1        0.0000
     22 H           5.3033    4.6044    7.0563 H       1  UNL1        0.0000
     23 H           4.7914    3.2969    6.0177 H       1  UNL1        0.0000
     24 C           7.7079    2.1510    6.3785 C.3     1  UNL1        0.0000
     25 H           7.0790    1.3515    5.9988 H       1  UNL1        0.0000
     26 H           7.6206    2.1558    7.4611 H       1  UNL1        0.0000
     27 H           8.7357    1.9077    6.1272 H       1  UNL1        0.0000
@<TRIPOS>BOND
     1     9     8    1
     2    11    10    1
     3     8    10    2
     4     8     7    1
     5    10     2    1
     6    15    12    1
     7    14    12    1
     8    12     7    1
     9    12    13    1
    10     7     5    2
    11     2     4    1
    12     5     4    1
    13     5     6    1
    14     4     3    1
    15     3     1    1
    16    21    20    1
    17     1    20    1
    18     1    24    1
    19     1    16    1
    20    19    16    1
    21    25    24    1
    22    23    20    1
    23    20    22    1
    24    27    24    1
    25    24    26    1
    26    16    17    1
    27    16    18    1
