@<TRIPOS>MOLECULE
4,5
 31 30 0 0 0
SMALL
GASTEIGER

@<TRIPOS>ATOM
      1 SI          4.3013    2.5711    0.9017 Si      1  UNL1        0.0000
      2 SI          4.7190    4.7483    2.9433 Si      1  UNL1        0.0000
      3 SI          5.0834    5.4331    5.9126 Si      1  UNL1        0.0000
      4 N           5.0801    3.1604    2.2963 N.3     1  UNL1        0.0000
      5 N           5.3520    4.4569    4.5476 N.3     1  UNL1        0.0000
      6 C           2.4267    2.2263    1.0707 C.3     1  UNL1        0.0000
      7 H           2.1600    2.0033    2.0996 H       1  UNL1        0.0000
      8 H           2.1133    1.3872    0.4562 H       1  UNL1        0.0000
      9 H           1.8416    3.0880    0.7646 H       1  UNL1        0.0000
     10 C           4.5069    3.6916   -0.6275 C.3     1  UNL1        0.0000
     11 H           5.5495    3.9382   -0.8012 H       1  UNL1        0.0000
     12 H           3.9700    4.6252   -0.4951 H       1  UNL1        0.0000
     13 H           4.1239    3.2152   -1.5245 H       1  UNL1        0.0000
     14 C           2.8924    5.2975    2.8935 C.3     1  UNL1        0.0000
     15 H           2.5430    5.3730    1.8697 H       1  UNL1        0.0000
     16 H           2.7704    6.2702    3.3582 H       1  UNL1        0.0000
     17 H           2.2500    4.5945    3.4128 H       1  UNL1        0.0000
     18 C           5.7131    6.0957    1.9994 C.3     1  UNL1        0.0000
     19 H           6.6909    5.7348    1.6930 H       1  UNL1        0.0000
     20 H           5.8562    6.9801    2.6107 H       1  UNL1        0.0000
     21 H           5.1836    6.3978    1.1027 H       1  UNL1        0.0000
     22 C           3.3315    5.3995    6.6778 C.3     1  UNL1        0.0000
     23 H           3.0399    4.4045    6.9997 H       1  UNL1        0.0000
     24 H           2.5907    5.7375    5.9602 H       1  UNL1        0.0000
     25 H           3.2712    6.0516    7.5442 H       1  UNL1        0.0000
     26 C           5.4438    7.2877    5.6166 C.3     1  UNL1        0.0000
     27 H           5.4603    7.8447    6.5486 H       1  UNL1        0.0000
     28 H           4.6756    7.7268    4.9882 H       1  UNL1        0.0000
     29 H           6.3964    7.4456    5.1198 H       1  UNL1        0.0000
     30 H           6.0307    4.9794    6.9846 H       1  UNL1        0.0000
     31 H           4.9590    1.2667    0.5436 H       1  UNL1        0.0000
@<TRIPOS>BOND
     1    13    10    1
     2    11    10    1
     3    10    12    1
     4    10     1    1
     5     8     6    1
     6    31     1    1
     7     9     6    1
     8     1     6    1
     9     1     4    1
    10     6     7    1
    11    21    18    1
    12    19    18    1
    13    15    14    1
    14    18    20    1
    15    18     2    1
    16     4     2    1
    17    14     2    1
    18    14    16    1
    19    14    17    1
    20     2     5    1
    21     5     3    1
    22    28    26    1
    23    29    26    1
    24    26     3    1
    25    26    27    1
    26     3    22    1
    27     3    30    1
    28    24    22    1
    29    22    23    1
    30    22    25    1
