@<TRIPOS>MOLECULE
3,5
 51 51 0 0 0
SMALL
GASTEIGER

@<TRIPOS>ATOM
      1 SI          4.0343    1.0126   12.0023 Si      1  UNL1        0.0000
      2 SI          1.8961    2.9684   11.1463 Si      1  UNL1        0.0000
      3 N           2.4325    4.2526   12.1865 N.3     1  UNL1        0.0000
      4 H           2.0798    4.3938   13.1279 H       1  UNL1        0.0000
      5 N           2.8467    3.6146    9.8445 N.3     1  UNL1        0.0000
      6 H           2.6597    3.3533    8.8823 H       1  UNL1        0.0000
      7 N           2.3646    1.3651   11.6645 N.pl3   1  UNL1        0.0000
      8 N           0.1919    2.8616   10.7698 N.3     1  UNL1        0.0000
      9 C           1.3563    0.3880   11.7879 C.ar    1  UNL1        0.0000
     10 C           0.6677    0.2454   12.9991 C.ar    1  UNL1        0.0000
     11 C          -0.3361   -0.7075   13.0990 C.ar    1  UNL1        0.0000
     12 H          -0.8742   -0.8227   14.0286 H       1  UNL1        0.0000
     13 C          -0.6633   -1.5105   12.0237 C.ar    1  UNL1        0.0000
     14 H          -1.4459   -2.2497   12.1159 H       1  UNL1        0.0000
     15 C           0.0093   -1.3549   10.8268 C.ar    1  UNL1        0.0000
     16 H          -0.2616   -1.9744    9.9847 H       1  UNL1        0.0000
     17 C           1.0187   -0.4131   10.6901 C.ar    1  UNL1        0.0000
     18 C           4.1320   -0.8206   12.5068 C.3     1  UNL1        0.0000
     19 H           3.8054   -1.4718   11.7042 H       1  UNL1        0.0000
     20 H           3.5074   -1.0337   13.3667 H       1  UNL1        0.0000
     21 H           5.1505   -1.0919   12.7603 H       1  UNL1        0.0000
     22 C           4.6520    2.1167   13.4346 C.3     1  UNL1        0.0000
     23 H           4.3159    3.1402   13.2665 H       1  UNL1        0.0000
     24 H           5.7363    2.1221   13.4940 H       1  UNL1        0.0000
     25 H           4.2782    1.7887   14.4006 H       1  UNL1        0.0000
     26 C           5.1036    1.3276   10.4527 C.3     1  UNL1        0.0000
     27 H           4.7909    2.2650    9.9917 H       1  UNL1        0.0000
     28 H           5.0061    0.5356    9.7156 H       1  UNL1        0.0000
     29 H           6.1571    1.4064   10.7041 H       1  UNL1        0.0000
     30 C          -0.1887    2.0775   14.4665 C.3     1  UNL1        0.0000
     31 H          -0.3967    2.6992   13.5983 H       1  UNL1        0.0000
     32 H           0.0472    2.7262   15.3083 H       1  UNL1        0.0000
     33 H          -1.0870    1.5135   14.7098 H       1  UNL1        0.0000
     34 C           0.9851    1.1381   14.1756 C.3     1  UNL1        0.0000
     35 H           1.8490    1.7484   13.9039 H       1  UNL1        0.0000
     36 C           1.3445    0.3259   15.4207 C.3     1  UNL1        0.0000
     37 H           2.1630   -0.3565   15.2043 H       1  UNL1        0.0000
     38 H           0.4955   -0.2574   15.7693 H       1  UNL1        0.0000
     39 H           1.6535    0.9901   16.2256 H       1  UNL1        0.0000
     40 C           2.2773   -1.5336    8.8164 C.3     1  UNL1        0.0000
     41 H           2.9323   -1.9985    9.5498 H       1  UNL1        0.0000
     42 H           2.8531   -1.3431    7.9127 H       1  UNL1        0.0000
     43 H           1.4857   -2.2374    8.5700 H       1  UNL1        0.0000
     44 C           1.7070   -0.2231    9.3606 C.3     1  UNL1        0.0000
     45 H           2.5325    0.4748    9.5125 H       1  UNL1        0.0000
     46 C           0.7363    0.4057    8.3573 C.3     1  UNL1        0.0000
     47 H           0.3802    1.3589    8.7399 H       1  UNL1        0.0000
     48 H          -0.1195   -0.2448    8.1876 H       1  UNL1        0.0000
     49 H           1.2354    0.5730    7.4046 H       1  UNL1        0.0000
     50 H          -0.2948    2.0638   11.1459 H       1  UNL1        0.0000
     51 H          -0.3595    3.6935   10.9038 H       1  UNL1        0.0000
@<TRIPOS>BOND
     1    49    46    1
     2    42    40    1
     3    48    46    1
     4    46    47    1
     5    46    44    1
     6    43    40    1
     7    40    44    1
     8    40    41    1
     9     6     5    1
    10    44    45    1
    11    44    17    1
    12    28    26    1
    13     5     2    1
    14    16    15    1
    15    27    26    1
    16    26    29    1
    17    26     1    1
    18    17    15   ar
    19    17     9   ar
    20     8    51    1
    21     8    50    1
    22     8     2    1
    23    15    13   ar
    24     2     7    1
    25     2     3    1
    26     7     9    1
    27     7     1    1
    28    19    18    1
    29     9    10   ar
    30     1    18    1
    31     1    22    1
    32    13    14    1
    33    13    11   ar
    34     3     4    1
    35    18    21    1
    36    18    20    1
    37    10    11   ar
    38    10    34    1
    39    11    12    1
    40    23    22    1
    41    22    24    1
    42    22    25    1
    43    31    30    1
    44    35    34    1
    45    34    30    1
    46    34    36    1
    47    30    33    1
    48    30    32    1
    49    37    36    1
    50    36    38    1
    51    36    39    1
