@<TRIPOS>MOLECULE
1,2
 88 91 0 0 0
SMALL
GASTEIGER

@<TRIPOS>ATOM
      1 N           5.9130    2.4768    6.6246 N.pl3   1  UNL1       -0.2409
      2 N           5.1162    1.9667    4.0354 N.3     1  UNL1       -0.2315
      3 P           0.2158    3.3868    3.0091 P.3     1  UNL1       -0.0438
      4 C           7.2588    4.5061    6.9334 C.3     1  UNL1       -0.0392
      5 H           6.8096    4.4955    7.9238 H       1  UNL1        0.0252
      6 H           7.1643    5.5032    6.5116 H       1  UNL1        0.0252
      7 H           8.3212    4.2833    7.0396 H       1  UNL1        0.0252
      8 C           6.6062    3.4616    6.0510 C.3     1  UNL1        0.0824
      9 C           6.7388    3.6100    4.6570 C.3     1  UNL1        0.0305
     10 C           5.8405    3.0267    3.7228 C.3     1  UNL1        0.0623
     11 C           5.6676    3.7089    2.3790 C.3     1  UNL1       -0.0429
     12 H           5.9661    3.0361    1.5743 H       1  UNL1        0.0249
     13 H           6.2504    4.6180    2.3044 H       1  UNL1        0.0249
     14 H           4.6247    3.9828    2.2276 H       1  UNL1        0.0249
     15 C           5.3778    2.6822    7.9249 C.ar    1  UNL1        0.0553
     16 C           4.1980    3.4376    8.0643 C.ar    1  UNL1       -0.0220
     17 C           3.6726    3.6502    9.3298 C.ar    1  UNL1       -0.0565
     18 H           2.7795    4.2458    9.4405 H       1  UNL1        0.0621
     19 C           4.2713    3.1192   10.4551 C.ar    1  UNL1       -0.0611
     20 H           3.8521    3.3000   11.4336 H       1  UNL1        0.0618
     21 C           5.4095    2.3516   10.3146 C.ar    1  UNL1       -0.0565
     22 H           5.8754    1.9324   11.1937 H       1  UNL1        0.0621
     23 C           5.9754    2.1278    9.0675 C.ar    1  UNL1       -0.0220
     24 C           3.4770    4.0086    6.8647 C.3     1  UNL1       -0.0197
     25 H           3.9591    3.6207    5.9615 H       1  UNL1        0.0344
     26 C           3.5632    5.5366    6.8487 C.3     1  UNL1       -0.0586
     27 H           3.0567    5.9579    7.7144 H       1  UNL1        0.0235
     28 H           3.0910    5.9275    5.9495 H       1  UNL1        0.0235
     29 H           4.5994    5.8653    6.8677 H       1  UNL1        0.0235
     30 C           2.0129    3.5608    6.8540 C.3     1  UNL1       -0.0586
     31 H           1.4571    4.0157    7.6700 H       1  UNL1        0.0235
     32 H           1.9477    2.4797    6.9586 H       1  UNL1        0.0235
     33 H           1.5354    3.8500    5.9191 H       1  UNL1        0.0235
     34 C           7.2372    1.3031    8.9713 C.3     1  UNL1       -0.0197
     35 H           7.5187    1.2360    7.9085 H       1  UNL1        0.0344
     36 C           6.9918   -0.1141    9.4971 C.3     1  UNL1       -0.0586
     37 H           6.6554   -0.0892   10.5308 H       1  UNL1        0.0235
     38 H           7.9049   -0.7030    9.4535 H       1  UNL1        0.0235
     39 H           6.2322   -0.6098    8.8942 H       1  UNL1        0.0235
     40 C           8.3848    1.9734    9.7321 C.3     1  UNL1       -0.0586
     41 H           8.5438    2.9878    9.3727 H       1  UNL1        0.0235
     42 H           9.3079    1.4119    9.6006 H       1  UNL1        0.0235
     43 H           8.1678    2.0205   10.7963 H       1  UNL1        0.0235
     44 C           7.8002    4.5672    4.1527 C.3     1  UNL1       -0.0175
     45 H           8.1433    4.2375    3.1672 H       1  UNL1        0.0320
     46 H           8.6752    4.5010    4.8047 H       1  UNL1        0.0320
     47 C           7.3963    6.0224    4.0610 C.ar    1  UNL1       -0.0467
     48 C           6.0865    6.4396    4.2575 C.ar    1  UNL1       -0.0586
     49 H           5.3236    5.7091    4.4808 H       1  UNL1        0.0620
     50 C           5.7537    7.7808    4.1801 C.ar    1  UNL1       -0.0615
     51 H           4.7321    8.0858    4.3509 H       1  UNL1        0.0618
     52 C           6.7229    8.7244    3.8904 C.ar    1  UNL1       -0.0617
     53 H           6.4635    9.7711    3.8287 H       1  UNL1        0.0618
     54 C           8.0308    8.3184    3.6827 C.ar    1  UNL1       -0.0615
     55 H           8.7942    9.0485    3.4557 H       1  UNL1        0.0618
     56 C           8.3634    6.9794    3.7716 C.ar    1  UNL1       -0.0586
     57 H           9.3873    6.6686    3.6160 H       1  UNL1        0.0620
     58 C           3.9947    1.5899    3.1811 C.3     1  UNL1        0.0150
     59 H           3.8169    0.5134    3.3031 H       1  UNL1        0.0441
     60 H           4.1954    1.7814    2.1202 H       1  UNL1        0.0441
     61 C           2.7353    2.3546    3.6063 C.3     1  UNL1       -0.0344
     62 H           2.9784    3.4200    3.6544 H       1  UNL1        0.0282
     63 H           2.4556    2.0347    4.6105 H       1  UNL1        0.0282
     64 C           1.5690    2.1433    2.6498 C.3     1  UNL1       -0.0232
     65 H           1.1572    1.1402    2.7810 H       1  UNL1        0.0319
     66 H           1.8937    2.2467    1.6100 H       1  UNL1        0.0319
     67 C           1.1903    4.9116    2.6566 C.ar    1  UNL1       -0.0190
     68 C           1.9040    5.0910    1.4756 C.ar    1  UNL1       -0.0538
     69 H           1.8645    4.3377    0.7006 H       1  UNL1        0.0624
     70 C           2.6539    6.2355    1.2810 C.ar    1  UNL1       -0.0612
     71 H           3.2107    6.3642    0.3639 H       1  UNL1        0.0618
     72 C           2.6907    7.2203    2.2558 C.ar    1  UNL1       -0.0617
     73 H           3.2774    8.1128    2.0963 H       1  UNL1        0.0618
     74 C           1.9681    7.0584    3.4250 C.ar    1  UNL1       -0.0612
     75 H           1.9793    7.8300    4.1820 H       1  UNL1        0.0618
     76 C           1.2241    5.9079    3.6248 C.ar    1  UNL1       -0.0538
     77 H           0.6563    5.7777    4.5361 H       1  UNL1        0.0624
     78 C          -0.7022    3.2910    1.4247 C.ar    1  UNL1       -0.0190
     79 C          -0.9739    2.0690    0.8181 C.ar    1  UNL1       -0.0538
     80 H          -0.5909    1.1548    1.2480 H       1  UNL1        0.0624
     81 C          -1.7346    2.0144   -0.3358 C.ar    1  UNL1       -0.0612
     82 H          -1.9310    1.0602   -0.8035 H       1  UNL1        0.0618
     83 C          -2.2468    3.1756   -0.8891 C.ar    1  UNL1       -0.0617
     84 H          -2.8384    3.1310   -1.7915 H       1  UNL1        0.0618
     85 C          -2.0048    4.3935   -0.2751 C.ar    1  UNL1       -0.0612
     86 H          -2.4110    5.3020   -0.6958 H       1  UNL1        0.0618
     87 C          -1.2460    4.4506    0.8784 C.ar    1  UNL1       -0.0538
     88 H          -1.0639    5.4024    1.3588 H       1  UNL1        0.0624
@<TRIPOS>BOND
     1    84    83    1
     2    83    81   ar
     3    83    85   ar
     4    82    81    1
     5    86    85    1
     6    81    79   ar
     7    85    87   ar
     8    71    70    1
     9    69    68    1
    10    79    80    1
    11    79    78   ar
    12    87    88    1
    13    87    78   ar
    14    70    68   ar
    15    70    72   ar
    16    78     3    1
    17    68    67   ar
    18    12    11    1
    19    66    64    1
    20    73    72    1
    21    60    58    1
    22    14    11    1
    23    72    74   ar
    24    13    11    1
    25    11    10    1
    26    64    65    1
    27    64     3    1
    28    64    61    1
    29    67     3    1
    30    67    76   ar
    31    45    44    1
    32    58    59    1
    33    58    61    1
    34    58     2    1
    35    74    76   ar
    36    74    75    1
    37    55    54    1
    38    61    62    1
    39    61    63    1
    40    57    56    1
    41    76    77    1
    42    54    56   ar
    43    54    52   ar
    44    10     2    1
    45    10     9    1
    46    56    47   ar
    47    53    52    1
    48    52    50   ar
    49    47    44    1
    50    47    48   ar
    51    44     9    1
    52    44    46    1
    53    50    48   ar
    54    50    51    1
    55    48    49    1
    56     9     8    1
    57    33    30    1
    58    28    26    1
    59    25    24    1
    60     8     1    1
    61     8     4    1
    62     6     4    1
    63     1    15    1
    64    26    24    1
    65    26    29    1
    66    26    27    1
    67    30    24    1
    68    30    32    1
    69    30    31    1
    70    24    16    1
    71     4     7    1
    72     4     5    1
    73    35    34    1
    74    15    16   ar
    75    15    23   ar
    76    16    17   ar
    77    39    36    1
    78    34    23    1
    79    34    36    1
    80    34    40    1
    81    23    21   ar
    82    17    18    1
    83    17    19   ar
    84    41    40    1
    85    38    36    1
    86    36    37    1
    87    42    40    1
    88    40    43    1
    89    21    19   ar
    90    21    22    1
    91    19    20    1
