@<TRIPOS>MOLECULE
1,2
 75 77 0 0 0
SMALL
GASTEIGER

@<TRIPOS>ATOM
      1 N           1.6240    4.6560   14.6794 N.3     1  UNL1       -0.2311
      2 N           0.6689    2.3243   15.7678 N.pl3   1  UNL1       -0.2410
      3 P           1.4736    8.4694   16.1197 P.3     1  UNL1       -0.0426
      4 C           3.8294    4.5551   13.6211 C.3     1  UNL1       -0.0429
      5 H           3.5433    5.3450   12.9280 H       1  UNL1        0.0249
      6 H           4.4758    3.8579   13.1056 H       1  UNL1        0.0249
      7 H           4.4051    5.0119   14.4271 H       1  UNL1        0.0249
      8 C           2.5990    3.8929   14.1969 C.3     1  UNL1        0.0617
      9 C           2.5928    2.4858   14.3324 C.3     1  UNL1        0.0232
     10 C           1.7948    1.8160   15.2808 C.3     1  UNL1        0.0819
     11 C           2.2935    0.4805   15.7866 C.3     1  UNL1       -0.0392
     12 H           1.8571    0.2589   16.7580 H       1  UNL1        0.0252
     13 H           3.3771    0.4691   15.8735 H       1  UNL1        0.0252
     14 H           2.0024   -0.3070   15.0916 H       1  UNL1        0.0252
     15 C           3.6139    1.6638   13.5744 C.3     1  UNL1       -0.0550
     16 H           4.5950    1.6627   14.0544 H       1  UNL1        0.0237
     17 H           3.7290    2.0413   12.5602 H       1  UNL1        0.0237
     18 H           3.2814    0.6332   13.4894 H       1  UNL1        0.0237
     19 C           0.1422    1.8337   16.9911 C.ar    1  UNL1        0.0553
     20 C           0.5681    2.4477   18.1863 C.ar    1  UNL1       -0.0220
     21 C           0.0331    2.0183   19.3907 C.ar    1  UNL1       -0.0565
     22 H           0.3616    2.4706   20.3133 H       1  UNL1        0.0621
     23 C          -0.9173    1.0147   19.4310 C.ar    1  UNL1       -0.0611
     24 H          -1.3277    0.6946   20.3775 H       1  UNL1        0.0618
     25 C          -1.3290    0.4145   18.2577 C.ar    1  UNL1       -0.0565
     26 H          -2.0583   -0.3804   18.2999 H       1  UNL1        0.0621
     27 C          -0.8059    0.7986   17.0300 C.ar    1  UNL1       -0.0220
     28 C           1.6099    3.5458   18.1520 C.3     1  UNL1       -0.0197
     29 H           1.5715    4.0086   17.1564 H       1  UNL1        0.0344
     30 C           1.3730    4.6344   19.2015 C.3     1  UNL1       -0.0586
     31 H           0.3320    4.9449   19.2196 H       1  UNL1        0.0235
     32 H           1.9879    5.5036   18.9745 H       1  UNL1        0.0235
     33 H           1.6471    4.2872   20.1953 H       1  UNL1        0.0235
     34 C           3.0106    2.9548   18.3448 C.3     1  UNL1       -0.0586
     35 H           3.0618    2.3978   19.2789 H       1  UNL1        0.0235
     36 H           3.7499    3.7527   18.3770 H       1  UNL1        0.0235
     37 H           3.2642    2.2867   17.5278 H       1  UNL1        0.0235
     38 C          -1.2269    0.0589   15.7786 C.3     1  UNL1       -0.0197
     39 H          -0.7495    0.5421   14.9121 H       1  UNL1        0.0344
     40 C          -0.7785   -1.4057   15.8505 C.3     1  UNL1       -0.0586
     41 H           0.2838   -1.4884   16.0615 H       1  UNL1        0.0235
     42 H          -0.9843   -1.9074   14.9072 H       1  UNL1        0.0235
     43 H          -1.3186   -1.9288   16.6365 H       1  UNL1        0.0235
     44 C          -2.7405    0.1021   15.5620 C.3     1  UNL1       -0.0586
     45 H          -3.2669   -0.3869   16.3785 H       1  UNL1        0.0235
     46 H          -2.9922   -0.4114   14.6374 H       1  UNL1        0.0235
     47 H          -3.0902    1.1267   15.4899 H       1  UNL1        0.0235
     48 C           1.9098    6.0692   14.8655 C.3     1  UNL1        0.0191
     49 H           1.9868    6.5934   13.8991 H       1  UNL1        0.0445
     50 H           2.8752    6.1919   15.3816 H       1  UNL1        0.0445
     51 C           0.8425    6.7560   15.7153 C.3     1  UNL1       -0.0102
     52 H           0.7319    6.2213   16.6648 H       1  UNL1        0.0332
     53 H          -0.1185    6.7931   15.1923 H       1  UNL1        0.0332
     54 C           0.9395    9.3174   14.5750 C.ar    1  UNL1       -0.0189
     55 C           1.9020    9.4869   13.5841 C.ar    1  UNL1       -0.0538
     56 H           2.9084    9.1297   13.7588 H       1  UNL1        0.0624
     57 C           1.5818   10.1093   12.3915 C.ar    1  UNL1       -0.0612
     58 H           2.3336   10.2289   11.6246 H       1  UNL1        0.0618
     59 C           0.2993   10.5912   12.1882 C.ar    1  UNL1       -0.0617
     60 H           0.0488   11.0883   11.2624 H       1  UNL1        0.0618
     61 C          -0.6584   10.4398   13.1776 C.ar    1  UNL1       -0.0612
     62 H          -1.6562   10.8266   13.0286 H       1  UNL1        0.0618
     63 C          -0.3463    9.8000   14.3638 C.ar    1  UNL1       -0.0538
     64 H          -1.1058    9.6808   15.1223 H       1  UNL1        0.0624
     65 C           0.1863    9.0896   17.2699 C.ar    1  UNL1       -0.0189
     66 C          -1.0849    8.5505   17.4258 C.ar    1  UNL1       -0.0538
     67 H          -1.4048    7.7095   16.8299 H       1  UNL1        0.0624
     68 C          -1.9651    9.1096   18.3357 C.ar    1  UNL1       -0.0612
     69 H          -2.9543    8.6898   18.4442 H       1  UNL1        0.0618
     70 C          -1.5915   10.2047   19.0957 C.ar    1  UNL1       -0.0617
     71 H          -2.2851   10.6352   19.8032 H       1  UNL1        0.0618
     72 C          -0.3261   10.7475   18.9448 C.ar    1  UNL1       -0.0612
     73 H          -0.0289   11.6029   19.5341 H       1  UNL1        0.0618
     74 C           0.5568   10.1887   18.0404 C.ar    1  UNL1       -0.0538
     75 H           1.5490   10.6031   17.9189 H       1  UNL1        0.0624
@<TRIPOS>BOND
     1    60    59    1
     2    58    57    1
     3    59    57   ar
     4    59    61   ar
     5    57    55   ar
     6    17    15    1
     7     5     4    1
     8    62    61    1
     9     6     4    1
    10    61    63   ar
    11    18    15    1
    12    15    16    1
    13    15     9    1
    14    55    56    1
    15    55    54   ar
    16     4     8    1
    17     4     7    1
    18    49    48    1
    19     8     9    1
    20     8     1    1
    21     9    10    1
    22    63    54   ar
    23    63    64    1
    24    54     3    1
    25    46    44    1
    26     1    48    1
    27    48    50    1
    28    48    51    1
    29    42    40    1
    30    39    38    1
    31    14    11    1
    32    53    51    1
    33    10     2    1
    34    10    11    1
    35    47    44    1
    36    44    38    1
    37    44    45    1
    38    51     3    1
    39    51    52    1
    40     2    19    1
    41    38    40    1
    42    38    27    1
    43    11    13    1
    44    11    12    1
    45    40    41    1
    46    40    43    1
    47     3    65    1
    48    67    66    1
    49    19    27   ar
    50    19    20   ar
    51    27    25   ar
    52    29    28    1
    53    65    66   ar
    54    65    74   ar
    55    66    68   ar
    56    37    34    1
    57    75    74    1
    58    74    72   ar
    59    28    20    1
    60    28    34    1
    61    28    30    1
    62    20    21   ar
    63    25    26    1
    64    25    23   ar
    65    68    69    1
    66    68    70   ar
    67    34    36    1
    68    34    35    1
    69    72    70   ar
    70    72    73    1
    71    32    30    1
    72    70    71    1
    73    30    31    1
    74    30    33    1
    75    21    23   ar
    76    21    22    1
    77    23    24    1
