@<TRIPOS>MOLECULE
1,3
 40 40 0 0 0
SMALL
GASTEIGER

@<TRIPOS>ATOM
      1 N          -1.9143    1.9657    3.0495 N.3     1  UNL1        0.0000
      2 C          -2.4753    2.9132    3.7744 C.3     1  UNL1        0.0000
      3 N          -1.8270    3.2827    4.8499 N.3     1  UNL1        0.0000
      4 SI         -2.2329    4.4552    6.0390 Si      1  UNL1        0.0000
      5 C          -0.5500    4.9896    6.7635 C.3     1  UNL1        0.0000
      6 H           0.0426    5.5183    6.0219 H       1  UNL1        0.0000
      7 H           0.0098    4.1115    7.0742 H       1  UNL1        0.0000
      8 H          -0.6689    5.6406    7.6239 H       1  UNL1        0.0000
      9 C          -3.1455    6.0222    5.4164 C.3     1  UNL1        0.0000
     10 H          -2.6693    6.4347    4.5318 H       1  UNL1        0.0000
     11 H          -3.1442    6.7950    6.1787 H       1  UNL1        0.0000
     12 H          -4.1796    5.8138    5.1613 H       1  UNL1        0.0000
     13 C          -3.2915    3.6481    7.4234 C.3     1  UNL1        0.0000
     14 H          -3.0023    2.6115    7.5778 H       1  UNL1        0.0000
     15 H          -4.3496    3.6641    7.1791 H       1  UNL1        0.0000
     16 H          -3.1684    4.1698    8.3671 H       1  UNL1        0.0000
     17 C          -3.7962    3.5053    3.4392 C.ar    1  UNL1        0.0000
     18 C          -3.9393    4.4628    2.4434 C.ar    1  UNL1        0.0000
     19 C          -5.1792    5.0247    2.1927 C.ar    1  UNL1        0.0000
     20 C          -6.2862    4.6269    2.9230 C.ar    1  UNL1        0.0000
     21 C          -6.1503    3.6641    3.9096 C.ar    1  UNL1        0.0000
     22 C          -4.9105    3.1093    4.1706 C.ar    1  UNL1        0.0000
     23 H          -4.7946    2.3597    4.9401 H       1  UNL1        0.0000
     24 H          -7.0133    3.3479    4.4775 H       1  UNL1        0.0000
     25 H          -7.2529    5.0652    2.7236 H       1  UNL1        0.0000
     26 H          -5.2830    5.7752    1.4224 H       1  UNL1        0.0000
     27 H          -3.0782    4.7702    1.8705 H       1  UNL1        0.0000
     28 SI         -2.5149    1.1670    1.6369 Si      1  UNL1        0.0000
     29 C          -4.3798    1.3518    1.2287 C.3     1  UNL1        0.0000
     30 H          -4.6392    2.3602    0.9249 H       1  UNL1        0.0000
     31 H          -5.0034    1.0990    2.0807 H       1  UNL1        0.0000
     32 H          -4.6499    0.6856    0.4151 H       1  UNL1        0.0000
     33 C          -2.2119   -0.7061    1.9156 C.3     1  UNL1        0.0000
     34 H          -1.3158   -1.0412    1.4041 H       1  UNL1        0.0000
     35 H          -3.0378   -1.3037    1.5429 H       1  UNL1        0.0000
     36 H          -2.0869   -0.9205    2.9750 H       1  UNL1        0.0000
     37 C          -1.5261    1.8019    0.1190 C.3     1  UNL1        0.0000
     38 H          -0.4739    1.9279    0.3607 H       1  UNL1        0.0000
     39 H          -1.8992    2.7592   -0.2337 H       1  UNL1        0.0000
     40 H          -1.5970    1.1034   -0.7085 H       1  UNL1        0.0000
@<TRIPOS>BOND
     1    40    37    1
     2    39    37    1
     3    37    38    1
     4    37    28    1
     5    32    29    1
     6    30    29    1
     7    29    28    1
     8    29    31    1
     9    34    33    1
    10    26    19    1
    11    35    33    1
    12    28    33    1
    13    28     1    1
    14    27    18    1
    15    33    36    1
    16    19    18   ar
    17    19    20   ar
    18    18    17   ar
    19    25    20    1
    20    20    21   ar
    21     1     2    1
    22    17     2    1
    23    17    22   ar
    24     2     3    1
    25    21    22   ar
    26    21    24    1
    27    22    23    1
    28    10     9    1
    29     3     4    1
    30    12     9    1
    31     9     4    1
    32     9    11    1
    33     6     5    1
    34     4     5    1
    35     4    13    1
    36     5     7    1
    37     5     8    1
    38    15    13    1
    39    13    14    1
    40    13    16    1
