@<TRIPOS>MOLECULE
1,3
 40 40 0 0 0
SMALL
GASTEIGER

@<TRIPOS>ATOM
      1 N           1.1118    1.9657    5.8193 N.3     1  UNL1        0.0000
      2 C           1.6728    2.9132    5.0944 C.3     1  UNL1        0.0000
      3 N           1.0246    3.2827    4.0188 N.3     1  UNL1        0.0000
      4 SI          1.7125    1.1670    7.2319 Si      1  UNL1        0.0000
      5 C           3.5773    1.3518    7.6401 C.3     1  UNL1        0.0000
      6 C           1.4094   -0.7061    6.9532 C.3     1  UNL1        0.0000
      7 C           0.7237    1.8019    8.7498 C.3     1  UNL1        0.0000
      8 SI          1.4304    4.4552    2.8298 Si      1  UNL1        0.0000
      9 C          -0.2525    4.9896    2.1052 C.3     1  UNL1        0.0000
     10 C           2.3430    6.0222    3.4523 C.3     1  UNL1        0.0000
     11 C           2.4891    3.6481    1.4454 C.3     1  UNL1        0.0000
     12 C           2.9938    3.5053    5.4296 C.ar    1  UNL1        0.0000
     13 C           3.1369    4.4628    6.4254 C.ar    1  UNL1        0.0000
     14 C           4.3768    5.0247    6.6761 C.ar    1  UNL1        0.0000
     15 C           5.4837    4.6269    5.9457 C.ar    1  UNL1        0.0000
     16 C           5.3479    3.6641    4.9592 C.ar    1  UNL1        0.0000
     17 C           4.1081    3.1094    4.6981 C.ar    1  UNL1        0.0000
     18 H           3.8368    2.3602    7.9439 H       1  UNL1        0.0000
     19 H           4.2009    1.0990    6.7881 H       1  UNL1        0.0000
     20 H           3.8475    0.6857    8.4537 H       1  UNL1        0.0000
     21 H           0.5134   -1.0412    7.4646 H       1  UNL1        0.0000
     22 H           2.2353   -1.3037    7.3259 H       1  UNL1        0.0000
     23 H           1.2845   -0.9205    5.8937 H       1  UNL1        0.0000
     24 H          -0.3285    1.9279    8.5081 H       1  UNL1        0.0000
     25 H           1.0968    2.7592    9.1025 H       1  UNL1        0.0000
     26 H           0.7945    1.1034    9.5773 H       1  UNL1        0.0000
     27 H          -0.8451    5.5183    2.8468 H       1  UNL1        0.0000
     28 H          -0.8122    4.1115    1.7946 H       1  UNL1        0.0000
     29 H          -0.1335    5.6406    1.2449 H       1  UNL1        0.0000
     30 H           1.8669    6.4347    4.3370 H       1  UNL1        0.0000
     31 H           2.3418    6.7950    2.6901 H       1  UNL1        0.0000
     32 H           3.3772    5.8138    3.7075 H       1  UNL1        0.0000
     33 H           2.1998    2.6115    1.2910 H       1  UNL1        0.0000
     34 H           3.5471    3.6641    1.6897 H       1  UNL1        0.0000
     35 H           2.3659    4.1698    0.5017 H       1  UNL1        0.0000
     36 H           2.2757    4.7702    6.9982 H       1  UNL1        0.0000
     37 H           4.4805    5.7753    7.4464 H       1  UNL1        0.0000
     38 H           6.4505    5.0652    6.1451 H       1  UNL1        0.0000
     39 H           6.2108    3.3479    4.3913 H       1  UNL1        0.0000
     40 H           3.9921    2.3597    3.9287 H       1  UNL1        0.0000
@<TRIPOS>BOND
     1    35    11    1
     2    29     9    1
     3    33    11    1
     4    11    34    1
     5    11     8    1
     6    28     9    1
     7     9     8    1
     8     9    27    1
     9    31    10    1
    10     8    10    1
    11     8     3    1
    12    10    32    1
    13    10    30    1
    14    40    17    1
    15     3     2    1
    16    39    16    1
    17    17    16   ar
    18    17    12   ar
    19    16    15   ar
    20     2    12    1
    21     2     1    1
    22    12    13   ar
    23     1     4    1
    24    23     6    1
    25    15    38    1
    26    15    14   ar
    27    13    14   ar
    28    13    36    1
    29    14    37    1
    30    19     5    1
    31     6     4    1
    32     6    22    1
    33     6    21    1
    34     4     5    1
    35     4     7    1
    36     5    18    1
    37     5    20    1
    38    24     7    1
    39     7    25    1
    40     7    26    1
