@<TRIPOS>MOLECULE
1,2
 90 93 0 0 0
SMALL
GASTEIGER

@<TRIPOS>ATOM
      1 N           8.7397    0.2078    0.3764 N.pl3   1  UNL1       -0.2409
      2 N          10.5215    2.1791    2.3804 N.pl3   1  UNL1       -0.2306
      3 P          11.3823    0.8143    2.3104 P.3     1  UNL1       -0.0181
      4 C           7.5274   -0.4166   -0.0176 C.ar    1  UNL1        0.0553
      5 C           6.9746   -1.4200    0.8023 C.ar    1  UNL1       -0.0220
      6 C           5.7905   -2.0372    0.4280 C.ar    1  UNL1       -0.0565
      7 H           5.3744   -2.8121    1.0540 H       1  UNL1        0.0621
      8 C           5.1373   -1.6880   -0.7362 C.ar    1  UNL1       -0.0611
      9 H           4.2232   -2.1872   -1.0212 H       1  UNL1        0.0618
     10 C           5.6672   -0.6917   -1.5311 C.ar    1  UNL1       -0.0565
     11 H           5.1583   -0.4194   -2.4426 H       1  UNL1        0.0621
     12 C           6.8465   -0.0444   -1.1913 C.ar    1  UNL1       -0.0220
     13 C           7.6267   -1.8430    2.1005 C.3     1  UNL1       -0.0197
     14 H           8.5005   -1.2069    2.2735 H       1  UNL1        0.0344
     15 C           6.6570   -1.6579    3.2713 C.3     1  UNL1       -0.0586
     16 H           6.2267   -0.6598    3.2553 H       1  UNL1        0.0235
     17 H           7.1750   -1.8051    4.2176 H       1  UNL1        0.0235
     18 H           5.8450   -2.3790    3.2204 H       1  UNL1        0.0235
     19 C           8.0942   -3.2994    2.0368 C.3     1  UNL1       -0.0586
     20 H           7.2515   -3.9658    1.8684 H       1  UNL1        0.0235
     21 H           8.5723   -3.5835    2.9722 H       1  UNL1        0.0235
     22 H           8.8047   -3.4430    1.2272 H       1  UNL1        0.0235
     23 C           7.3848    1.0162   -2.1243 C.3     1  UNL1       -0.0197
     24 H           8.1512    1.5944   -1.5787 H       1  UNL1        0.0344
     25 C           6.3019    1.9998   -2.5746 C.3     1  UNL1       -0.0586
     26 H           5.6324    1.5473   -3.3020 H       1  UNL1        0.0235
     27 H           6.7657    2.8677   -3.0386 H       1  UNL1        0.0235
     28 H           5.7140    2.3358   -1.7242 H       1  UNL1        0.0235
     29 C           8.0452    0.3676   -3.3446 C.3     1  UNL1       -0.0586
     30 H           8.8734   -0.2676   -3.0410 H       1  UNL1        0.0235
     31 H           8.4253    1.1341   -4.0169 H       1  UNL1        0.0235
     32 H           7.3252   -0.2428   -3.8863 H       1  UNL1        0.0235
     33 C           9.8785   -0.4708    0.2428 C.3     1  UNL1        0.0826
     34 C           9.9664   -1.6678   -0.6881 C.3     1  UNL1       -0.0392
     35 H           8.9802   -1.9863   -1.0165 H       1  UNL1        0.0252
     36 H          10.4679   -2.5012   -0.1996 H       1  UNL1        0.0252
     37 H          10.5555   -1.3951   -1.5636 H       1  UNL1        0.0252
     38 C          11.0787   -0.1003    0.8394 C.3     1  UNL1        0.0280
     39 H          11.9363   -0.7168    0.5904 H       1  UNL1        0.0390
     40 C          11.0362   -0.1925    3.8574 C.3     1  UNL1       -0.0067
     41 H           9.9637   -0.0235    4.0184 H       1  UNL1        0.0361
     42 C          11.2386   -1.6955    3.6872 C.3     1  UNL1       -0.0452
     43 H          10.7116   -2.0411    2.7957 H       1  UNL1        0.0272
     44 H          12.2960   -1.9299    3.5592 H       1  UNL1        0.0272
     45 C          10.7133   -2.4215    4.9240 C.3     1  UNL1       -0.0525
     46 H          10.8639   -3.4979    4.8146 H       1  UNL1        0.0265
     47 H           9.6401   -2.2410    5.0217 H       1  UNL1        0.0265
     48 C          11.4229   -1.9225    6.1798 C.3     1  UNL1       -0.0530
     49 H          11.0254   -2.4337    7.0590 H       1  UNL1        0.0265
     50 H          12.4877   -2.1587    6.1110 H       1  UNL1        0.0265
     51 C          11.2490   -0.4137    6.3332 C.3     1  UNL1       -0.0525
     52 H          11.7832   -0.0651    7.2194 H       1  UNL1        0.0265
     53 H          10.1910   -0.1778    6.4693 H       1  UNL1        0.0265
     54 C          11.7722    0.3146    5.0965 C.3     1  UNL1       -0.0452
     55 H          12.8440    0.1300    5.0045 H       1  UNL1        0.0272
     56 H          11.6208    1.3900    5.2113 H       1  UNL1        0.0272
     57 C          13.2294    1.1239    2.2897 C.3     1  UNL1       -0.0067
     58 H          13.4086    1.7858    3.1463 H       1  UNL1        0.0361
     59 C          13.5663    1.8724    1.0010 C.3     1  UNL1       -0.0452
     60 H          13.4407    1.1930    0.1539 H       1  UNL1        0.0272
     61 H          12.8767    2.7090    0.8563 H       1  UNL1        0.0272
     62 C          15.0091    2.3658    1.0263 C.3     1  UNL1       -0.0525
     63 H          15.2332    2.9032    0.1027 H       1  UNL1        0.0265
     64 H          15.1459    3.0603    1.8586 H       1  UNL1        0.0265
     65 C          15.9593    1.1824    1.1846 C.3     1  UNL1       -0.0530
     66 H          15.8765    0.5339    0.3093 H       1  UNL1        0.0265
     67 H          16.9916    1.5334    1.2432 H       1  UNL1        0.0265
     68 C          15.6124    0.3853    2.4383 C.3     1  UNL1       -0.0525
     69 H          16.2731   -0.4807    2.5216 H       1  UNL1        0.0265
     70 H          15.7720    1.0115    3.3199 H       1  UNL1        0.0265
     71 C          14.1563   -0.0831    2.4125 C.3     1  UNL1       -0.0452
     72 H          13.9533   -0.6447    3.3245 H       1  UNL1        0.0272
     73 H          14.0097   -0.7548    1.5642 H       1  UNL1        0.0272
     74 C          10.2280    2.8159    3.6206 C.ar    1  UNL1        0.0576
     75 C          11.0749    3.8047    4.1479 C.ar    1  UNL1       -0.0273
     76 C          10.7815    4.3849    5.3742 C.ar    1  UNL1       -0.0570
     77 H          11.4527    5.1359    5.7662 H       1  UNL1        0.0621
     78 C           9.6585    4.0209    6.0898 C.ar    1  UNL1       -0.0611
     79 H           9.4518    4.4663    7.0511 H       1  UNL1        0.0618
     80 C           8.7858    3.1044    5.5379 C.ar    1  UNL1       -0.0570
     81 H           7.8788    2.8396    6.0634 H       1  UNL1        0.0621
     82 C           9.0408    2.5122    4.3080 C.ar    1  UNL1       -0.0273
     83 C          12.2881    4.2943    3.4130 C.3     1  UNL1       -0.0379
     84 H          13.2027    3.9167    3.8716 H       1  UNL1        0.0278
     85 H          12.3271    5.3820    3.4529 H       1  UNL1        0.0278
     86 H          12.2582    3.9855    2.3723 H       1  UNL1        0.0278
     87 C           7.9864    1.5978    3.7513 C.3     1  UNL1       -0.0379
     88 H           8.2688    1.1891    2.7753 H       1  UNL1        0.0278
     89 H           7.0588    2.1596    3.6320 H       1  UNL1        0.0278
     90 H           7.7882    0.7797    4.4439 H       1  UNL1        0.0278
@<TRIPOS>BOND
     1    31    29    1
     2    32    29    1
     3    29    30    1
     4    29    23    1
     5    26    25    1
     6    27    25    1
     7    25    23    1
     8    25    28    1
     9    11    10    1
    10    23    24    1
    11    23    12    1
    12    37    34    1
    13    10    12   ar
    14    10     8   ar
    15    12     4   ar
    16     9     8    1
    17    35    34    1
    18     8     6   ar
    19    34    36    1
    20    34    33    1
    21     4     1    1
    22     4     5   ar
    23    63    62    1
    24    60    59    1
    25    33     1    1
    26    33    38    1
    27    66    65    1
    28     6     5   ar
    29     6     7    1
    30    39    38    1
    31     5    13    1
    32    38     3    1
    33    61    59    1
    34    59    62    1
    35    59    57    1
    36    62    65    1
    37    62    64    1
    38    65    67    1
    39    65    68    1
    40    22    19    1
    41    73    71    1
    42    20    19    1
    43    19    13    1
    44    19    21    1
    45    13    14    1
    46    13    15    1
    47    57     3    1
    48    57    71    1
    49    57    58    1
    50     3     2    1
    51     3    40    1
    52    86    83    1
    53     2    74    1
    54    71    68    1
    55    71    72    1
    56    68    69    1
    57    68    70    1
    58    88    87    1
    59    43    42    1
    60    18    15    1
    61    16    15    1
    62    15    17    1
    63    83    85    1
    64    83    84    1
    65    83    75    1
    66    44    42    1
    67    74    75   ar
    68    74    82   ar
    69    89    87    1
    70    42    40    1
    71    42    45    1
    72    87    82    1
    73    87    90    1
    74    40    41    1
    75    40    54    1
    76    75    76   ar
    77    82    80   ar
    78    46    45    1
    79    45    47    1
    80    45    48    1
    81    55    54    1
    82    54    56    1
    83    54    51    1
    84    76    77    1
    85    76    78   ar
    86    80    81    1
    87    80    78   ar
    88    78    79    1
    89    50    48    1
    90    48    51    1
    91    48    49    1
    92    51    53    1
    93    51    52    1
