@<TRIPOS>MOLECULE
1,16
 27 27 0 0 0
SMALL
GASTEIGER

@<TRIPOS>ATOM
      1 N          17.2372    8.4834    4.1705 N.3     1  UNL1        0.0000
      2 SI         17.6996    7.9803    5.7472 Si      1  UNL1        0.0000
      3 C          18.9182    9.1578    6.6529 C.3     1  UNL1        0.0000
      4 H          18.4015    9.9710    7.1520 H       1  UNL1        0.0000
      5 H          19.6389    9.5912    5.9658 H       1  UNL1        0.0000
      6 H          19.4722    8.6167    7.4122 H       1  UNL1        0.0000
      7 C          18.6309    6.3305    5.4556 C.3     1  UNL1        0.0000
      8 H          19.6410    6.5011    5.0871 H       1  UNL1        0.0000
      9 H          18.1010    5.7185    4.7231 H       1  UNL1        0.0000
     10 H          18.7119    5.7549    6.3722 H       1  UNL1        0.0000
     11 C          16.1543    7.7213    6.8484 C.3     1  UNL1        0.0000
     12 H          15.5873    8.6399    6.9715 H       1  UNL1        0.0000
     13 H          16.4316    7.3706    7.8369 H       1  UNL1        0.0000
     14 H          15.4975    6.9806    6.4010 H       1  UNL1        0.0000
     15 C          17.2263    9.6567    3.5475 C.3     1  UNL1        0.0000
     16 N          17.0473    9.5375    2.1981 N.pl3   1  UNL1        0.0000
     17 C          16.9898   10.6384    1.4527 C.2     1  UNL1        0.0000
     18 C          17.1056   11.9093    1.9666 C.2     1  UNL1        0.0000
     19 C          17.2919   12.0644    3.3516 C.2     1  UNL1        0.0000
     20 C          17.3527   10.9381    4.1351 C.2     1  UNL1        0.0000
     21 H          17.4802   11.0032    5.2033 H       1  UNL1        0.0000
     22 C          17.4030   13.4361    3.9411 C.3     1  UNL1        0.0000
     23 H          18.1447   14.0228    3.4015 H       1  UNL1        0.0000
     24 H          17.6827   13.3877    4.9901 H       1  UNL1        0.0000
     25 H          16.4473   13.9535    3.8593 H       1  UNL1        0.0000
     26 H          17.0520   12.7729    1.3231 H       1  UNL1        0.0000
     27 H          16.8438   10.4764    0.3885 H       1  UNL1        0.0000
@<TRIPOS>BOND
     1    27    17    1
     2    26    18    1
     3    17    18    2
     4    17    16    1
     5    18    19    1
     6    16    15    1
     7    19    22    1
     8    19    20    2
     9    23    22    1
    10    15    20    1
    11    15     1    1
    12    25    22    1
    13    22    24    1
    14    20    21    1
    15     1     2    1
    16     9     7    1
    17     8     7    1
    18     7     2    1
    19     7    10    1
    20     2     3    1
    21     2    11    1
    22     5     3    1
    23    14    11    1
    24     3     4    1
    25     3     6    1
    26    11    12    1
    27    11    13    1
