@<TRIPOS>MOLECULE
2,3
 27 27 0 0 0
SMALL
GASTEIGER

@<TRIPOS>ATOM
      1 SI         17.6922    3.9642    1.7236 Si      1  UNL1        0.0000
      2 N          18.1946    5.5412    2.1857 N.3     1  UNL1        0.0000
      3 N          19.2485    7.5139    2.3751 N.pl3   1  UNL1        0.0000
      4 C          19.3679    6.1646    2.1963 C.3     1  UNL1        0.0000
      5 C          20.6494    5.5771    2.0698 C.2     1  UNL1        0.0000
      6 C          21.7756    6.3609    2.1304 C.2     1  UNL1        0.0000
      7 C          23.1474    5.7713    2.0200 C.3     1  UNL1        0.0000
      8 C          21.6202    7.7458    2.3162 C.2     1  UNL1        0.0000
      9 C          20.3493    8.2595    2.4321 C.2     1  UNL1        0.0000
     10 C          18.8700    3.0581    0.5055 C.3     1  UNL1        0.0000
     11 C          16.0424    4.2550    0.7921 C.3     1  UNL1        0.0000
     12 C          17.4338    2.8640    3.2697 C.3     1  UNL1        0.0000
     13 H          20.7147    4.5089    1.9424 H       1  UNL1        0.0000
     14 H          23.7358    6.3134    1.2810 H       1  UNL1        0.0000
     15 H          23.0990    4.7229    1.7368 H       1  UNL1        0.0000
     16 H          23.6628    5.8499    2.9774 H       1  UNL1        0.0000
     17 H          22.4837    8.3895    2.3695 H       1  UNL1        0.0000
     18 H          20.1871    9.3237    2.5777 H       1  UNL1        0.0000
     19 H          19.6835    2.5597    1.0223 H       1  UNL1        0.0000
     20 H          19.3029    3.7448   -0.2158 H       1  UNL1        0.0000
     21 H          18.3291    2.2981   -0.0479 H       1  UNL1        0.0000
     22 H          16.2130    4.6224   -0.2184 H       1  UNL1        0.0000
     23 H          15.4304    4.9880    1.3214 H       1  UNL1        0.0000
     24 H          15.4667    3.3383    0.7121 H       1  UNL1        0.0000
     25 H          18.3528    2.7409    3.8361 H       1  UNL1        0.0000
     26 H          17.0825    1.8755    2.9933 H       1  UNL1        0.0000
     27 H          16.6937    3.3121    3.9268 H       1  UNL1        0.0000
@<TRIPOS>BOND
     1    22    11    1
     2    20    10    1
     3    21    10    1
     4    10    19    1
     5    10     1    1
     6    24    11    1
     7    11    23    1
     8    11     1    1
     9    14     7    1
    10     1     2    1
    11     1    12    1
    12    15     7    1
    13    13     5    1
    14     7     6    1
    15     7    16    1
    16     5     6    2
    17     5     4    1
    18     6     8    1
    19     2     4    1
    20     4     3    1
    21     8    17    1
    22     8     9    2
    23     3     9    1
    24     9    18    1
    25    26    12    1
    26    12    25    1
    27    12    27    1
