@<TRIPOS>MOLECULE
1,16
 27 27 0 0 0
SMALL
GASTEIGER

@<TRIPOS>ATOM
      1 N          15.2526    7.5257    1.2277 N.3     1  UNL1        0.0000
      2 SI         13.6760    7.9885    1.7308 Si      1  UNL1        0.0000
      3 C          12.7709    9.2073    0.5530 C.3     1  UNL1        0.0000
      4 H          12.2728    8.6911   -0.2610 H       1  UNL1        0.0000
      5 H          13.4581    9.9286    0.1208 H       1  UNL1        0.0000
      6 H          12.0108    9.7608    1.0937 H       1  UNL1        0.0000
      7 C          13.9669    8.9200    3.3806 C.3     1  UNL1        0.0000
      8 H          14.3353    9.9302    3.2102 H       1  UNL1        0.0000
      9 H          14.6990    8.3904    3.9931 H       1  UNL1        0.0000
     10 H          13.0500    9.0008    3.9558 H       1  UNL1        0.0000
     11 C          12.5750    6.4431    1.9894 C.3     1  UNL1        0.0000
     12 H          12.4523    5.8759    1.0708 H       1  UNL1        0.0000
     13 H          11.5863    6.7201    2.3398 H       1  UNL1        0.0000
     14 H          13.0224    5.7865    2.7304 H       1  UNL1        0.0000
     15 C          15.8758    7.5152    0.0545 C.3     1  UNL1        0.0000
     16 N          17.2252    7.3362    0.1738 N.pl3   1  UNL1        0.0000
     17 C          17.9706    7.2786   -0.9271 C.2     1  UNL1        0.0000
     18 C          17.4569    7.3943   -2.1980 C.2     1  UNL1        0.0000
     19 C          16.0720    7.5806   -2.3533 C.2     1  UNL1        0.0000
     20 C          15.2884    7.6416   -1.2270 C.2     1  UNL1        0.0000
     21 H          14.2202    7.7693   -1.2922 H       1  UNL1        0.0000
     22 C          15.4823    7.6911   -3.7250 C.3     1  UNL1        0.0000
     23 H          16.0272    8.4259   -4.3151 H       1  UNL1        0.0000
     24 H          14.4358    7.9792   -3.6769 H       1  UNL1        0.0000
     25 H          15.5558    6.7328   -4.2384 H       1  UNL1        0.0000
     26 H          18.1005    7.3406   -3.0615 H       1  UNL1        0.0000
     27 H          19.0348    7.1327   -0.7649 H       1  UNL1        0.0000
@<TRIPOS>BOND
     1    23    22    1
     2    25    22    1
     3    22    24    1
     4    22    19    1
     5    26    18    1
     6    19    18    1
     7    19    20    2
     8    18    17    2
     9    21    20    1
    10    20    15    1
    11    17    27    1
    12    17    16    1
    13     4     3    1
    14    15    16    1
    15    15     1    1
    16     5     3    1
    17     3     6    1
    18     3     2    1
    19    12    11    1
    20     1     2    1
    21     2    11    1
    22     2     7    1
    23    11    13    1
    24    11    14    1
    25     8     7    1
    26     7    10    1
    27     7     9    1
