@<TRIPOS>MOLECULE
4,5
 50 49 0 0 0
SMALL
GASTEIGER

@<TRIPOS>ATOM
      1 AS          6.6815   -2.5617   11.6280 As      1  UNL1        0.0000
      2 SI          5.6988   -2.6642   13.7754 Si      1  UNL1        0.0000
      3 SI          4.9072   -2.5311   10.0498 Si      1  UNL1        0.0000
      4 N           6.9453    0.3891   11.9497 N.3     1  UNL1        0.0000
      5 N           8.8451   -0.6250   11.5389 N.3     1  UNL1        0.0000
      6 C           7.5411   -0.7742   11.6852 C.3     1  UNL1        0.0000
      7 C           5.8886   -4.5217   14.2098 C.3     1  UNL1        0.0000
      8 C           6.8182   -1.6689   14.9698 C.3     1  UNL1        0.0000
      9 C           3.8520   -2.2441   14.0760 C.3     1  UNL1        0.0000
     10 C           5.6693   -1.9072    8.4058 C.3     1  UNL1        0.0000
     11 C           3.1789   -1.7263   10.2736 C.3     1  UNL1        0.0000
     12 C           4.5919   -4.4130    9.8670 C.3     1  UNL1        0.0000
     13 C           5.5060    0.5352   11.9869 C.3     1  UNL1        0.0000
     14 C           5.0485    1.2002   13.2883 C.3     1  UNL1        0.0000
     15 C           5.0445    1.3728   10.7884 C.3     1  UNL1        0.0000
     16 C           9.7933   -1.7001   11.2791 C.3     1  UNL1        0.0000
     17 C           9.4831   -2.5454   10.0252 C.3     1  UNL1        0.0000
     18 C          10.0212   -2.6113   12.4934 C.3     1  UNL1        0.0000
     19 H           5.0352   -0.4643   11.9209 H       1  UNL1        0.0000
     20 H          10.7423   -1.1743   11.0928 H       1  UNL1        0.0000
     21 H           5.5616   -4.7565   15.2172 H       1  UNL1        0.0000
     22 H           6.9257   -4.8342   14.1102 H       1  UNL1        0.0000
     23 H           5.3024   -5.1237   13.5201 H       1  UNL1        0.0000
     24 H           6.3060   -1.3751   15.8812 H       1  UNL1        0.0000
     25 H           7.6884   -2.2535   15.2574 H       1  UNL1        0.0000
     26 H           7.1767   -0.7651   14.4783 H       1  UNL1        0.0000
     27 H           3.2188   -2.9056   13.4909 H       1  UNL1        0.0000
     28 H           3.5906   -2.3862   15.1206 H       1  UNL1        0.0000
     29 H           3.6021   -1.2217   13.8136 H       1  UNL1        0.0000
     30 H           6.1000   -0.9164    8.5295 H       1  UNL1        0.0000
     31 H           4.9402   -1.8495    7.6036 H       1  UNL1        0.0000
     32 H           6.4664   -2.5730    8.0840 H       1  UNL1        0.0000
     33 H           3.2000   -0.6543   10.1098 H       1  UNL1        0.0000
     34 H           2.4724   -2.1495    9.5648 H       1  UNL1        0.0000
     35 H           2.7832   -1.9026   11.2693 H       1  UNL1        0.0000
     36 H           5.5373   -4.9375    9.7439 H       1  UNL1        0.0000
     37 H           4.1169   -4.8044   10.7628 H       1  UNL1        0.0000
     38 H           3.9569   -4.6565    9.0220 H       1  UNL1        0.0000
     39 H           5.3382    0.6054   14.1508 H       1  UNL1        0.0000
     40 H           3.9657    1.3046   13.2850 H       1  UNL1        0.0000
     41 H           5.4929    2.1891   13.3706 H       1  UNL1        0.0000
     42 H           5.3436    0.8985    9.8540 H       1  UNL1        0.0000
     43 H           3.9619    1.4783   10.7983 H       1  UNL1        0.0000
     44 H           5.4906    2.3641   10.8505 H       1  UNL1        0.0000
     45 H           8.8279   -1.9957    9.3490 H       1  UNL1        0.0000
     46 H           8.9972   -3.4851   10.2895 H       1  UNL1        0.0000
     47 H          10.4063   -2.7767    9.4980 H       1  UNL1        0.0000
     48 H          10.7896   -3.3431   12.2552 H       1  UNL1        0.0000
     49 H           9.1015   -3.1391   12.7564 H       1  UNL1        0.0000
     50 H          10.3532   -2.0273   13.3481 H       1  UNL1        0.0000
@<TRIPOS>BOND
     1    31    10    1
     2    32    10    1
     3    10    30    1
     4    10     3    1
     5    38    12    1
     6    45    17    1
     7    47    17    1
     8    34    11    1
     9    36    12    1
    10    42    15    1
    11    12     3    1
    12    12    37    1
    13    17    46    1
    14    17    16    1
    15     3    11    1
    16     3     1    1
    17    33    11    1
    18    11    35    1
    19    15    43    1
    20    15    44    1
    21    15    13    1
    22    20    16    1
    23    16     5    1
    24    16    18    1
    25     5     6    1
    26     1     6    1
    27     1     2    1
    28     6     4    1
    29    19    13    1
    30     4    13    1
    31    13    14    1
    32    48    18    1
    33    18    49    1
    34    18    50    1
    35    40    14    1
    36    14    41    1
    37    14    39    1
    38    27     9    1
    39    23     7    1
    40     2     9    1
    41     2     7    1
    42     2     8    1
    43    29     9    1
    44     9    28    1
    45    22     7    1
    46     7    21    1
    47    26     8    1
    48     8    25    1
    49     8    24    1
