@<TRIPOS>MOLECULE
1,2
 24 23 0 0 0
SMALL
GASTEIGER

@<TRIPOS>ATOM
      1 N           4.5662    2.3440    2.3881 N.3     1  UNL1       -0.3071
      2 N           1.9691    0.8932    1.8828 N.3     1  UNL1       -0.3071
      3 C           3.2721    0.2391    2.0350 C.3     1  UNL1        0.0111
      4 C           4.2149    1.0281    2.9340 C.3     1  UNL1        0.0111
      5 C           5.3292    2.2056    1.1521 C.3     1  UNL1       -0.0130
      6 C           5.3894    3.0228    3.3896 C.3     1  UNL1       -0.0130
      7 C           1.1195    0.6013    3.0371 C.3     1  UNL1       -0.0130
      8 C           1.3161    0.3629    0.6921 C.3     1  UNL1       -0.0130
      9 H           3.7181    0.1325    1.0448 H       1  UNL1        0.0439
     10 H           3.1485   -0.7714    2.4564 H       1  UNL1        0.0439
     11 H           3.7374    1.1999    3.9000 H       1  UNL1        0.0439
     12 H           5.1272    0.4306    3.0954 H       1  UNL1        0.0439
     13 H           6.1611    1.4992    1.2713 H       1  UNL1        0.0391
     14 H           4.6856    1.8746    0.3422 H       1  UNL1        0.0391
     15 H           5.7377    3.1718    0.8711 H       1  UNL1        0.0391
     16 H           6.2560    2.4103    3.6699 H       1  UNL1        0.0391
     17 H           5.7486    3.9716    2.9998 H       1  UNL1        0.0391
     18 H           4.7844    3.2142    4.2742 H       1  UNL1        0.0391
     19 H           0.9902   -0.4814    3.1693 H       1  UNL1        0.0391
     20 H           1.5477    1.0315    3.9374 H       1  UNL1        0.0391
     21 H           0.1438    1.0561    2.8838 H       1  UNL1        0.0391
     22 H           1.1683   -0.7236    0.7682 H       1  UNL1        0.0391
     23 H           0.3434    0.8341    0.5679 H       1  UNL1        0.0391
     24 H           1.9221    0.5762   -0.1858 H       1  UNL1        0.0391
@<TRIPOS>BOND
     1    24     8    1
     2    14     5    1
     3    23     8    1
     4     8    22    1
     5     8     2    1
     6    15     5    1
     7     9     3    1
     8     5    13    1
     9     5     1    1
    10     2     3    1
    11     2     7    1
    12     3    10    1
    13     3     4    1
    14     1     4    1
    15     1     6    1
    16    21     7    1
    17     4    12    1
    18     4    11    1
    19    17     6    1
    20     7    19    1
    21     7    20    1
    22     6    16    1
    23     6    18    1
