@<TRIPOS>MOLECULE
1,3
 42 43 0 0 0
SMALL
GASTEIGER

@<TRIPOS>ATOM
      1 P           2.8484   21.8049    0.9802 P.3     1  UNL1        0.0000
      2 SI          3.4325   18.4979    0.9031 Si      1  UNL1        0.0000
      3 C           5.1898   20.7713    1.5033 C.2     1  UNL1        0.0000
      4 C           3.9647   20.3414    1.1096 C.2     1  UNL1        0.0000
      5 C           6.2925   19.8002    1.8615 C.3     1  UNL1        0.0000
      6 H           6.0876   19.3514    2.8343 H       1  UNL1        0.0000
      7 H           7.2650   20.2916    1.9193 H       1  UNL1        0.0000
      8 H           6.3556   18.9808    1.1468 H       1  UNL1        0.0000
      9 C           4.2689   17.8225   -0.6823 C.3     1  UNL1        0.0000
     10 H           4.1480   16.7442   -0.7142 H       1  UNL1        0.0000
     11 H           5.3354   18.0248   -0.7154 H       1  UNL1        0.0000
     12 H           3.8384   18.2174   -1.5977 H       1  UNL1        0.0000
     13 C           4.0240   17.4349    2.3788 C.3     1  UNL1        0.0000
     14 H           3.4279   16.5281    2.4196 H       1  UNL1        0.0000
     15 H           3.9139   17.9297    3.3393 H       1  UNL1        0.0000
     16 H           5.0597   17.1281    2.2801 H       1  UNL1        0.0000
     17 C           1.5414   18.2726    0.7912 C.3     1  UNL1        0.0000
     18 H           1.3022   17.4999    0.0670 H       1  UNL1        0.0000
     19 H           1.0072   19.1707    0.5006 H       1  UNL1        0.0000
     20 H           1.1347   17.9548    1.7460 H       1  UNL1        0.0000
     21 C           1.4650   21.3288    2.0962 C.ar    1  UNL1        0.0000
     22 C           1.7010   20.4404    3.1406 C.ar    1  UNL1        0.0000
     23 H           2.6778   19.9984    3.2485 H       1  UNL1        0.0000
     24 C           0.6907   20.1043    4.0222 C.ar    1  UNL1        0.0000
     25 H           0.8884   19.4060    4.8218 H       1  UNL1        0.0000
     26 C          -0.5699   20.6597    3.8803 C.ar    1  UNL1        0.0000
     27 H          -1.3594   20.3985    4.5674 H       1  UNL1        0.0000
     28 C          -0.8118   21.5498    2.8475 C.ar    1  UNL1        0.0000
     29 H          -1.7925   21.9841    2.7267 H       1  UNL1        0.0000
     30 C           0.1974   21.8885    1.9640 C.ar    1  UNL1        0.0000
     31 H          -0.0177   22.5772    1.1613 H       1  UNL1        0.0000
     32 C           1.9028   21.8193   -0.5938 C.ar    1  UNL1        0.0000
     33 C           1.8015   20.7584   -1.4831 C.ar    1  UNL1        0.0000
     34 H           2.3370   19.8438   -1.2947 H       1  UNL1        0.0000
     35 C           1.0199   20.8759   -2.6196 C.ar    1  UNL1        0.0000
     36 H           0.9447   20.0436   -3.3027 H       1  UNL1        0.0000
     37 C           0.3355   22.0509   -2.8827 C.ar    1  UNL1        0.0000
     38 H          -0.2758   22.1356   -3.7674 H       1  UNL1        0.0000
     39 C           0.4461   23.1219   -2.0109 C.ar    1  UNL1        0.0000
     40 H          -0.0742   24.0453   -2.2164 H       1  UNL1        0.0000
     41 C           1.2311   23.0086   -0.8782 C.ar    1  UNL1        0.0000
     42 H           1.3321   23.8525   -0.2059 H       1  UNL1        0.0000
@<TRIPOS>BOND
     1    38    37    1
     2    36    35    1
     3    37    35   ar
     4    37    39   ar
     5    35    33   ar
     6    40    39    1
     7    39    41   ar
     8    12     9    1
     9    33    34    1
    10    33    32   ar
    11    41    32   ar
    12    41    42    1
    13    11     9    1
    14    10     9    1
    15     9     2    1
    16    32     1    1
    17    18    17    1
    18    19    17    1
    19    17     2    1
    20    17    20    1
    21     2     4    1
    22     2    13    1
    23     1     4    1
    24     1    21    1
    25     4     3    2
    26     8     5    1
    27    31    30    1
    28     3     5    1
    29     5     7    1
    30     5     6    1
    31    30    21   ar
    32    30    28   ar
    33    21    22   ar
    34    16    13    1
    35    13    14    1
    36    13    15    1
    37    29    28    1
    38    28    26   ar
    39    22    23    1
    40    22    24   ar
    41    26    24   ar
    42    26    27    1
    43    24    25    1
