@<TRIPOS>MOLECULE
1,3
 51 51 0 0 0
SMALL
GASTEIGER

@<TRIPOS>ATOM
      1 C           0.3653    8.9652   18.0472 C.2     1  UNL1        0.0000
      2 O           0.6524    7.7983   18.1711 O.2     1  UNL1        0.0000
      3 P           0.6593   11.2087   16.6834 P.3     1  UNL1        0.0000
      4 SI          3.5054   10.3510   16.4702 Si      1  UNL1        0.0000
      5 C           3.1825    8.6126   15.7666 C.3     1  UNL1        0.0000
      6 C           5.0910   11.2007   15.8349 C.3     1  UNL1        0.0000
      7 C           3.8544   10.1263   18.3277 C.3     1  UNL1        0.0000
      8 N           2.1481   11.4099   15.9633 N.3     1  UNL1        0.0000
      9 SI          2.1504   12.0968   14.3108 Si      1  UNL1        0.0000
     10 C           2.9242   10.9028   13.0332 C.3     1  UNL1        0.0000
     11 C           3.1724   13.7102   14.3746 C.3     1  UNL1        0.0000
     12 C           0.3868   12.4207   13.6684 C.3     1  UNL1        0.0000
     13 C          -0.1528   12.8423   16.5737 C.ar    1  UNL1        0.0000
     14 C          -1.5416   12.8533   16.5050 C.ar    1  UNL1        0.0000
     15 C          -2.2305   14.0504   16.4469 C.ar    1  UNL1        0.0000
     16 C          -1.5344   15.2481   16.4500 C.ar    1  UNL1        0.0000
     17 C          -0.1500   15.2421   16.4954 C.ar    1  UNL1        0.0000
     18 C           0.5423   14.0459   16.5521 C.ar    1  UNL1        0.0000
     19 C           1.4626   12.4285   19.2519 C.3     1  UNL1        0.0000
     20 C           1.0274   11.2126   18.5063 C.2     1  UNL1        0.0000
     21 C           0.7312   10.0228   19.0421 C.2     1  UNL1        0.0000
     22 C           0.6870    9.6741   20.5069 C.3     1  UNL1        0.0000
     23 F           0.4501   13.2796   19.4820 F       1  UNL1        0.0000
     24 F           2.0288   12.1770   20.4383 F       1  UNL1        0.0000
     25 F           2.3881   13.1229   18.5639 F       1  UNL1        0.0000
     26 F           1.9031    9.4559   21.0284 F       1  UNL1        0.0000
     27 F           0.1155   10.6439   21.2402 F       1  UNL1        0.0000
     28 F          -0.0307    8.5725   20.7359 F       1  UNL1        0.0000
     29 H           2.8439    8.6224   14.7372 H       1  UNL1        0.0000
     30 H           2.4245    8.1101   16.3618 H       1  UNL1        0.0000
     31 H           4.0828    8.0082   15.8148 H       1  UNL1        0.0000
     32 H           5.9113   10.4927   15.8869 H       1  UNL1        0.0000
     33 H           5.3534   12.0388   16.4732 H       1  UNL1        0.0000
     34 H           5.0348   11.5676   14.8191 H       1  UNL1        0.0000
     35 H           3.7675   11.0339   18.9126 H       1  UNL1        0.0000
     36 H           4.8811    9.7875   18.4309 H       1  UNL1        0.0000
     37 H           3.2264    9.3681   18.7802 H       1  UNL1        0.0000
     38 H           3.8346   10.4288   13.3774 H       1  UNL1        0.0000
     39 H           3.1671   11.4690   12.1393 H       1  UNL1        0.0000
     40 H           2.2414   10.1163   12.7277 H       1  UNL1        0.0000
     41 H           3.9026   13.7297   13.5727 H       1  UNL1        0.0000
     42 H           3.7106   13.8169   15.3103 H       1  UNL1        0.0000
     43 H           2.5412   14.5846   14.2519 H       1  UNL1        0.0000
     44 H           0.0620   13.4385   13.8546 H       1  UNL1        0.0000
     45 H          -0.3300   11.7580   14.1428 H       1  UNL1        0.0000
     46 H           0.3385   12.2562   12.5961 H       1  UNL1        0.0000
     47 H          -2.0700   11.9093   16.4838 H       1  UNL1        0.0000
     48 H          -3.3091   14.0497   16.3986 H       1  UNL1        0.0000
     49 H          -2.0702   16.1846   16.4111 H       1  UNL1        0.0000
     50 H           0.3952   16.1742   16.4898 H       1  UNL1        0.0000
     51 H           1.6188   14.0454   16.5784 H       1  UNL1        0.0000
@<TRIPOS>BOND
     1    39    10    1
     2    46    12    1
     3    40    10    1
     4    10    38    1
     5    10     9    1
     6    41    11    1
     7    12    44    1
     8    12    45    1
     9    12     9    1
    10    43    11    1
    11     9    11    1
    12     9     8    1
    13    11    42    1
    14    29     5    1
    15    34     6    1
    16     5    31    1
    17     5    30    1
    18     5     4    1
    19     6    32    1
    20     6     4    1
    21     6    33    1
    22     8     4    1
    23     8     3    1
    24    48    15    1
    25    49    16    1
    26    15    16   ar
    27    15    14   ar
    28    16    17   ar
    29     4     7    1
    30    47    14    1
    31    50    17    1
    32    17    18   ar
    33    14    13   ar
    34    18    13   ar
    35    18    51    1
    36    13     3    1
    37     3    20    1
    38     1     2    2
    39     1    21    1
    40     7    36    1
    41     7    37    1
    42     7    35    1
    43    20    21    2
    44    20    19    1
    45    25    19    1
    46    21    22    1
    47    19    23    1
    48    19    24    1
    49    22    28    1
    50    22    26    1
    51    22    27    1
