@<TRIPOS>MOLECULE
1,30
 38 38 0 0 0
SMALL
GASTEIGER

@<TRIPOS>ATOM
      1 P           5.1584    2.0427   13.3154 P.3     1  UNL1       -0.0040
      2 N           6.1264    4.2657   10.5212 N.pl3   1  UNL1       -0.3105
      3 N           5.1293    2.7926   11.7442 N.pl3   1  UNL1       -0.2848
      4 C           5.7832    0.2976   12.8404 C.3     1  UNL1       -0.0006
      5 C           5.2591   -0.2987   11.5356 C.3     1  UNL1       -0.0547
      6 H           5.6645   -1.3054   11.4314 H       1  UNL1        0.0239
      7 H           5.5970    0.2801   10.6785 H       1  UNL1        0.0239
      8 H           4.1780   -0.3760   11.5079 H       1  UNL1        0.0239
      9 C           5.5276   -0.6499   14.0106 C.3     1  UNL1       -0.0547
     10 H           4.4874   -0.9570   14.0764 H       1  UNL1        0.0239
     11 H           5.8171   -0.1744   14.9452 H       1  UNL1        0.0239
     12 H           6.1319   -1.5492   13.8922 H       1  UNL1        0.0239
     13 C           7.2965    0.4701   12.6984 C.3     1  UNL1       -0.0547
     14 H           7.7381    0.8029   13.6380 H       1  UNL1        0.0239
     15 H           7.5368    1.1945   11.9188 H       1  UNL1        0.0239
     16 H           7.7597   -0.4780   12.4273 H       1  UNL1        0.0239
     17 C           3.2967    1.9462   13.7196 C.3     1  UNL1       -0.0006
     18 C           3.2397    1.7909   15.2409 C.3     1  UNL1       -0.0547
     19 H           2.2123    1.8700   15.5943 H       1  UNL1        0.0239
     20 H           3.8243    2.5803   15.7159 H       1  UNL1        0.0239
     21 H           3.6337    0.8259   15.5549 H       1  UNL1        0.0239
     22 C           2.6531    3.2795   13.3303 C.3     1  UNL1       -0.0547
     23 H           2.6235    3.4070   12.2489 H       1  UNL1        0.0239
     24 H           3.1960    4.1152   13.7645 H       1  UNL1        0.0239
     25 H           1.6304    3.3116   13.7038 H       1  UNL1        0.0239
     26 C           2.4883    0.8404   13.0431 C.3     1  UNL1       -0.0547
     27 H           2.8335   -0.1547   13.3050 H       1  UNL1        0.0239
     28 H           2.4943    0.9523   11.9610 H       1  UNL1        0.0239
     29 H           1.4521    0.9224   13.3731 H       1  UNL1        0.0239
     30 C           6.0154    3.8335   11.7884 C.3     1  UNL1        0.1899
     31 C           5.2833    3.5436    9.7019 C.2     1  UNL1        0.0078
     32 H           5.2021    3.7525    8.6546 H       1  UNL1        0.0793
     33 C           4.6591    2.6181   10.4628 C.2     1  UNL1        0.0116
     34 H           3.9205    1.8921   10.1906 H       1  UNL1        0.0796
     35 C           7.0282    5.2657   10.0197 C.3     1  UNL1        0.0024
     36 H           7.6532    5.6213   10.8357 H       1  UNL1        0.0428
     37 H           6.4749    6.1109    9.6080 H       1  UNL1        0.0428
     38 H           7.6570    4.8341    9.2376 H       1  UNL1        0.0428
@<TRIPOS>BOND
     1    32    31    1
     2    38    35    1
     3    37    35    1
     4    31    33    2
     5    31     2    1
     6    35     2    1
     7    35    36    1
     8    34    33    1
     9    33     3    1
    10     2    30    1
    11     7     5    1
    12     6     5    1
    13     8     5    1
    14     5     4    1
    15     3    30    1
    16     3     1    1
    17    15    13    1
    18    28    26    1
    19    23    22    1
    20    16    13    1
    21    13     4    1
    22    13    14    1
    23     4     1    1
    24     4     9    1
    25    26    27    1
    26    26    29    1
    27    26    17    1
    28     1    17    1
    29    22    25    1
    30    22    17    1
    31    22    24    1
    32    17    18    1
    33    12     9    1
    34     9    10    1
    35     9    11    1
    36    18    21    1
    37    18    19    1
    38    18    20    1
