@<TRIPOS>MOLECULE
1,14
 33 35 0 0 0
SMALL
GASTEIGER

@<TRIPOS>ATOM
      1 P          10.8732    4.3152    6.6591 P.3     1  UNL1       -0.0125
      2 C           9.9341    4.1416    8.2222 C.ar    1  UNL1       -0.0147
      3 C           9.2092    5.2212    8.7166 C.ar    1  UNL1       -0.0535
      4 H           9.2028    6.1562    8.1745 H       1  UNL1        0.0624
      5 C           8.5076    5.1089    9.9017 C.ar    1  UNL1       -0.0611
      6 H           7.9540    5.9569   10.2790 H       1  UNL1        0.0618
      7 C           8.5176    3.9158   10.6042 C.ar    1  UNL1       -0.0617
      8 H           7.9749    3.8294   11.5340 H       1  UNL1        0.0618
      9 C           9.2245    2.8321   10.1101 C.ar    1  UNL1       -0.0611
     10 H           9.2302    1.8977   10.6524 H       1  UNL1        0.0618
     11 C           9.9244    2.9392    8.9233 C.ar    1  UNL1       -0.0535
     12 H          10.4721    2.0892    8.5398 H       1  UNL1        0.0624
     13 C          11.3856    6.0529    6.6985 C.ar    1  UNL1       -0.0069
     14 C          10.9678    6.5536    5.4403 C.ar    1  UNL1       -0.0091
     15 C          11.2731    7.8984    5.2093 C.ar    1  UNL1       -0.0534
     16 H          11.0299    8.3601    4.2575 H       1  UNL1        0.0624
     17 C          11.9041    8.6737    6.1709 C.ar    1  UNL1       -0.0611
     18 H          12.1288    9.7099    5.9530 H       1  UNL1        0.0618
     19 C          12.2530    8.1469    7.4044 C.ar    1  UNL1       -0.0611
     20 H          12.7352    8.7701    8.1448 H       1  UNL1        0.0618
     21 C          11.9930    6.8146    7.6808 C.ar    1  UNL1       -0.0530
     22 H          12.2615    6.3903    8.6395 H       1  UNL1        0.0624
     23 C          12.2689    3.2108    7.0524 C.ar    1  UNL1       -0.0147
     24 C          13.0295    3.3756    8.2056 C.ar    1  UNL1       -0.0535
     25 H          12.7930    4.1724    8.8963 H       1  UNL1        0.0624
     26 C          14.0834    2.5195    8.4629 C.ar    1  UNL1       -0.0611
     27 H          14.6814    2.6547    9.3527 H       1  UNL1        0.0618
     28 C          14.3740    1.4879    7.5834 C.ar    1  UNL1       -0.0617
     29 H          15.1988    0.8216    7.7896 H       1  UNL1        0.0618
     30 C          13.6082    1.3111    6.4429 C.ar    1  UNL1       -0.0611
     31 H          13.8318    0.5041    5.7604 H       1  UNL1        0.0618
     32 C          12.5592    2.1719    6.1758 C.ar    1  UNL1       -0.0535
     33 H          11.9623    2.0580    5.2800 H       1  UNL1        0.0624
@<TRIPOS>BOND
     1    16    15    1
     2    15    14   ar
     3    15    17   ar
     4    33    32    1
     5    14    13   ar
     6    31    30    1
     7    18    17    1
     8    17    19   ar
     9    32    30   ar
    10    32    23   ar
    11    30    28   ar
    12     1    13    1
    13     1    23    1
    14     1     2    1
    15    13    21   ar
    16    23    24   ar
    17    19    21   ar
    18    19    20    1
    19    28    29    1
    20    28    26   ar
    21    21    22    1
    22     4     3    1
    23    24    26   ar
    24    24    25    1
    25     2     3   ar
    26     2    11   ar
    27    26    27    1
    28    12    11    1
    29     3     5   ar
    30    11     9   ar
    31     5     6    1
    32     5     7   ar
    33     9     7   ar
    34     9    10    1
    35     7     8    1
