@<TRIPOS>MOLECULE
1,3
 33 35 0 0 0
SMALL
GASTEIGER

@<TRIPOS>ATOM
      1 P          -0.3519    2.7451    4.4330 P.3     1  UNL1       -0.0125
      2 C           1.4261    2.4554    4.6324 C.ar    1  UNL1       -0.0069
      3 C           2.0257    3.4656    3.8411 C.ar    1  UNL1       -0.0091
      4 C           3.4219    3.4404    3.8015 C.ar    1  UNL1       -0.0534
      5 H           3.9664    4.1502    3.1873 H       1  UNL1        0.0624
      6 C           4.1481    2.5086    4.5290 C.ar    1  UNL1       -0.0611
      7 H           5.2285    2.5172    4.4717 H       1  UNL1        0.0618
      8 C           3.5161    1.5695    5.3284 C.ar    1  UNL1       -0.0611
      9 H           4.1000    0.8602    5.8977 H       1  UNL1        0.0618
     10 C           2.1325    1.5349    5.3864 C.ar    1  UNL1       -0.0530
     11 H           1.6266    0.8075    6.0073 H       1  UNL1        0.0624
     12 C          -1.1903    1.2403    3.8407 C.ar    1  UNL1       -0.0147
     13 C          -1.0308    0.0173    4.4843 C.ar    1  UNL1       -0.0535
     14 H          -0.3952   -0.0533    5.3552 H       1  UNL1        0.0624
     15 C          -1.6849   -1.1019    4.0053 C.ar    1  UNL1       -0.0611
     16 H          -1.5521   -2.0543    4.4977 H       1  UNL1        0.0618
     17 C          -2.5112   -1.0047    2.8961 C.ar    1  UNL1       -0.0617
     18 H          -3.0207   -1.8824    2.5266 H       1  UNL1        0.0618
     19 C          -2.6842    0.2150    2.2631 C.ar    1  UNL1       -0.0611
     20 H          -3.3322    0.2912    1.4023 H       1  UNL1        0.0618
     21 C          -2.0233    1.3357    2.7321 C.ar    1  UNL1       -0.0535
     22 H          -2.1355    2.2922    2.2379 H       1  UNL1        0.0624
     23 C          -0.9680    2.7595    6.1558 C.ar    1  UNL1       -0.0147
     24 C          -2.2322    2.2675    6.4687 C.ar    1  UNL1       -0.0535
     25 H          -2.8699    1.8849    5.6837 H       1  UNL1        0.0624
     26 C          -2.6703    2.2649    7.7792 C.ar    1  UNL1       -0.0611
     27 H          -3.6493    1.8740    8.0150 H       1  UNL1        0.0618
     28 C          -1.8617    2.7641    8.7871 C.ar    1  UNL1       -0.0617
     29 H          -2.2069    2.7586    9.8103 H       1  UNL1        0.0618
     30 C          -0.6120    3.2739    8.4791 C.ar    1  UNL1       -0.0611
     31 H           0.0207    3.6716    9.2592 H       1  UNL1        0.0618
     32 C          -0.1676    3.2755    7.1702 C.ar    1  UNL1       -0.0535
     33 H           0.8127    3.6685    6.9363 H       1  UNL1        0.0624
@<TRIPOS>BOND
     1    20    19    1
     2    22    21    1
     3    19    21   ar
     4    19    17   ar
     5    18    17    1
     6    21    12   ar
     7    17    15   ar
     8     5     4    1
     9     4     3   ar
    10     4     6   ar
    11    12     1    1
    12    12    13   ar
    13     3     2   ar
    14    15    13   ar
    15    15    16    1
    16     1     2    1
    17     1    23    1
    18     7     6    1
    19    13    14    1
    20     6     8   ar
    21     2    10   ar
    22     8    10   ar
    23     8     9    1
    24    10    11    1
    25    25    24    1
    26    23    24   ar
    27    23    32   ar
    28    24    26   ar
    29    33    32    1
    30    32    30   ar
    31    26    27    1
    32    26    28   ar
    33    30    28   ar
    34    30    31    1
    35    28    29    1
