@<TRIPOS>MOLECULE
1,3
 33 35 0 0 0
SMALL
GASTEIGER

@<TRIPOS>ATOM
      1 P           1.5490    5.1283    3.3367 P.3     1  UNL1       -0.0125
      2 C           0.7639    4.9554    1.7124 C.ar    1  UNL1       -0.0069
      3 C           1.4788    3.8897    1.1169 C.ar    1  UNL1       -0.0091
      4 C           1.0620    3.5243   -0.1641 C.ar    1  UNL1       -0.0534
      5 H           1.5733    2.7295   -0.6962 H       1  UNL1        0.0624
      6 C           0.0016    4.1661   -0.7854 C.ar    1  UNL1       -0.0611
      7 H          -0.2979    3.8616   -1.7796 H       1  UNL1        0.0618
      8 C          -0.6780    5.1993   -0.1592 C.ar    1  UNL1       -0.0611
      9 H          -1.4995    5.6907   -0.6615 H       1  UNL1        0.0618
     10 C          -0.2988    5.6068    1.1081 C.ar    1  UNL1       -0.0530
     11 H          -0.8229    6.4149    1.6013 H       1  UNL1        0.0624
     12 C           0.1659    5.0032    4.5297 C.ar    1  UNL1       -0.0147
     13 C           0.3819    5.3971    5.8495 C.ar    1  UNL1       -0.0535
     14 H           1.3500    5.7839    6.1410 H       1  UNL1        0.0624
     15 C          -0.6365    5.3127    6.7777 C.ar    1  UNL1       -0.0611
     16 H          -0.4607    5.6162    7.7996 H       1  UNL1        0.0618
     17 C          -1.8859    4.8487    6.3960 C.ar    1  UNL1       -0.0617
     18 H          -2.6852    4.7914    7.1203 H       1  UNL1        0.0618
     19 C          -2.1092    4.4686    5.0845 C.ar    1  UNL1       -0.0611
     20 H          -3.0845    4.1182    4.7793 H       1  UNL1        0.0618
     21 C          -1.0864    4.5337    4.1541 C.ar    1  UNL1       -0.0535
     22 H          -1.2652    4.2291    3.1322 H       1  UNL1        0.0624
     23 C           1.9961    6.8600    3.6976 C.ar    1  UNL1       -0.0147
     24 C           1.0691    7.8914    3.5939 C.ar    1  UNL1       -0.0535
     25 H           0.0592    7.6773    3.2746 H       1  UNL1        0.0624
     26 C           1.4443    9.1854    3.9016 C.ar    1  UNL1       -0.0611
     27 H           0.7281    9.9890    3.8102 H       1  UNL1        0.0618
     28 C           2.7351    9.4535    4.3308 C.ar    1  UNL1       -0.0617
     29 H           3.0226   10.4666    4.5701 H       1  UNL1        0.0618
     30 C           3.6535    8.4247    4.4571 C.ar    1  UNL1       -0.0611
     31 H           4.6565    8.6327    4.8001 H       1  UNL1        0.0618
     32 C           3.2854    7.1296    4.1410 C.ar    1  UNL1       -0.0535
     33 H           3.9933    6.3149    4.2258 H       1  UNL1        0.0624
@<TRIPOS>BOND
     1     7     6    1
     2     6     4   ar
     3     6     8   ar
     4     5     4    1
     5     9     8    1
     6     4     3   ar
     7     8    10   ar
     8    10    11    1
     9    10     2   ar
    10     3     2   ar
    11     2     1    1
    12    22    21    1
    13    25    24    1
    14     1    23    1
    15     1    12    1
    16    24    23   ar
    17    24    26   ar
    18    23    32   ar
    19    27    26    1
    20    26    28   ar
    21    32    33    1
    22    32    30   ar
    23    21    12   ar
    24    21    19   ar
    25    28    30   ar
    26    28    29    1
    27    30    31    1
    28    12    13   ar
    29    20    19    1
    30    19    17   ar
    31    13    14    1
    32    13    15   ar
    33    17    15   ar
    34    17    18    1
    35    15    16    1
