@<TRIPOS>MOLECULE
1,3
 37 38 0 0 0
SMALL
GASTEIGER

@<TRIPOS>ATOM
      1 P           4.3644   -1.1311   15.2979 P.3     1  UNL1        0.0000
      2 SI          2.6639   -2.1449   12.8531 Si      1  UNL1        0.0000
      3 C           3.5158   -0.7660   13.7778 C.3     1  UNL1        0.0000
      4 C           1.0649   -2.8946   13.6270 C.3     1  UNL1        0.0000
      5 H           0.6816   -3.7083   13.0180 H       1  UNL1        0.0000
      6 H           0.2759   -2.1540   13.7189 H       1  UNL1        0.0000
      7 H           1.2626   -3.2923   14.6181 H       1  UNL1        0.0000
      8 C           3.7094   -3.6991   12.4086 C.3     1  UNL1        0.0000
      9 H           3.6306   -4.4502   13.1882 H       1  UNL1        0.0000
     10 H           4.7620   -3.4628   12.2880 H       1  UNL1        0.0000
     11 H           3.3643   -4.1477   11.4810 H       1  UNL1        0.0000
     12 C           2.1330   -1.3820   11.1692 C.3     1  UNL1        0.0000
     13 H           2.9418   -1.4165   10.4470 H       1  UNL1        0.0000
     14 H           1.8357   -0.3425   11.2774 H       1  UNL1        0.0000
     15 H           1.2960   -1.9256   10.7447 H       1  UNL1        0.0000
     16 C           6.0254   -1.8012   14.8426 C.ar    1  UNL1        0.0000
     17 C           6.8770   -2.3040   15.8237 C.ar    1  UNL1        0.0000
     18 H           6.5115   -2.4196   16.8365 H       1  UNL1        0.0000
     19 C           8.1666   -2.6817   15.5033 C.ar    1  UNL1        0.0000
     20 H           8.8167   -3.0858   16.2671 H       1  UNL1        0.0000
     21 C           8.6293   -2.5452   14.2032 C.ar    1  UNL1        0.0000
     22 H           9.6380   -2.8431   13.9543 H       1  UNL1        0.0000
     23 C           7.7945   -2.0268   13.2263 C.ar    1  UNL1        0.0000
     24 H           8.1524   -1.9229   12.2108 H       1  UNL1        0.0000
     25 C           6.5050   -1.6463   13.5478 C.ar    1  UNL1        0.0000
     26 H           5.8333   -1.2412   12.8014 H       1  UNL1        0.0000
     27 C           3.6889   -2.6337   16.1134 C.ar    1  UNL1        0.0000
     28 C           2.6067   -2.4230   16.9640 C.ar    1  UNL1        0.0000
     29 H           2.2837   -1.4055   17.1509 H       1  UNL1        0.0000
     30 C           1.9586   -3.4844   17.5634 C.ar    1  UNL1        0.0000
     31 H           1.1236   -3.3036   18.2261 H       1  UNL1        0.0000
     32 C           2.3835   -4.7801   17.3135 C.ar    1  UNL1        0.0000
     33 H           1.8785   -5.6160   17.7764 H       1  UNL1        0.0000
     34 C           3.4587   -4.9998   16.4677 C.ar    1  UNL1        0.0000
     35 H           3.7901   -6.0105   16.2715 H       1  UNL1        0.0000
     36 C           4.1111   -3.9369   15.8705 C.ar    1  UNL1        0.0000
     37 H           4.9529   -4.1156   15.2173 H       1  UNL1        0.0000
@<TRIPOS>BOND
     1    13    12    1
     2    15    12    1
     3    12    14    1
     4    12     2    1
     5    11     8    1
     6    24    23    1
     7    10     8    1
     8     8     2    1
     9     8     9    1
    10    26    25    1
    11     2     4    1
    12     2     3    1
    13     5     4    1
    14    23    25   ar
    15    23    21   ar
    16    25    16   ar
    17     4     6    1
    18     4     7    1
    19     3     1    1
    20    22    21    1
    21    21    19   ar
    22    16     1    1
    23    16    17   ar
    24    37    36    1
    25     1    27    1
    26    19    17   ar
    27    19    20    1
    28    17    18    1
    29    36    27   ar
    30    36    34   ar
    31    27    28   ar
    32    35    34    1
    33    34    32   ar
    34    28    29    1
    35    28    30   ar
    36    32    30   ar
    37    32    33    1
    38    30    31    1
