@<TRIPOS>MOLECULE
1,2
 42 42 0 0 0
SMALL
GASTEIGER

@<TRIPOS>ATOM
      1 C           0.9290   14.0948    1.4945 C.3     1  UNL1        0.0000
      2 P           1.0088   13.5509    3.1732 P.3     1  UNL1        0.0000
      3 C           2.7355   13.1282    3.5387 C.ar    1  UNL1        0.0000
      4 C           3.6996   14.1169    3.3692 C.ar    1  UNL1        0.0000
      5 C           5.0286   13.8330    3.6218 C.ar    1  UNL1        0.0000
      6 C           5.4005   12.5679    4.0514 C.ar    1  UNL1        0.0000
      7 C           4.4411   11.5835    4.2207 C.ar    1  UNL1        0.0000
      8 C           3.1096   11.8604    3.9652 C.ar    1  UNL1        0.0000
      9 N           0.1049   12.1755    3.5235 N.3     1  UNL1        0.0000
     10 SI         -0.4171   12.0878    5.2183 Si      1  UNL1        0.0000
     11 C          -2.3184   11.9252    5.2533 C.3     1  UNL1        0.0000
     12 C           0.1557   13.6616    6.1083 C.3     1  UNL1        0.0000
     13 C           0.3810   10.6131    6.1286 C.3     1  UNL1        0.0000
     14 SI         -0.2409   11.0161    2.2383 Si      1  UNL1        0.0000
     15 C           1.2502   10.8997    1.0544 C.3     1  UNL1        0.0000
     16 C          -0.5362    9.2894    2.9823 C.3     1  UNL1        0.0000
     17 C          -1.8454   11.4970    1.3147 C.3     1  UNL1        0.0000
     18 H           1.8817   14.1770    0.9760 H       1  UNL1        0.0000
     19 H           0.1672   13.6110    0.8908 H       1  UNL1        0.0000
     20 H           3.3938   15.1020    3.0427 H       1  UNL1        0.0000
     21 H           5.7760   14.6008    3.4891 H       1  UNL1        0.0000
     22 H           6.4387   12.3506    4.2547 H       1  UNL1        0.0000
     23 H           4.7311   10.5967    4.5520 H       1  UNL1        0.0000
     24 H           2.3548   11.0977    4.0847 H       1  UNL1        0.0000
     25 H          -2.6459   11.6693    6.2553 H       1  UNL1        0.0000
     26 H          -2.6716   11.1476    4.5841 H       1  UNL1        0.0000
     27 H          -2.8149   12.8503    4.9782 H       1  UNL1        0.0000
     28 H          -0.0958   13.6325    7.1643 H       1  UNL1        0.0000
     29 H          -0.2899   14.5556    5.6802 H       1  UNL1        0.0000
     30 H           1.2350   13.7750    6.0291 H       1  UNL1        0.0000
     31 H          -0.0979   10.4963    7.0949 H       1  UNL1        0.0000
     32 H           1.4385   10.7764    6.3107 H       1  UNL1        0.0000
     33 H           0.2733    9.6751    5.5988 H       1  UNL1        0.0000
     34 H           0.9823   11.1901    0.0433 H       1  UNL1        0.0000
     35 H           1.6333    9.8848    1.0071 H       1  UNL1        0.0000
     36 H           2.0615   11.5457    1.3771 H       1  UNL1        0.0000
     37 H          -0.8757    8.6242    2.1958 H       1  UNL1        0.0000
     38 H          -1.2920    9.2913    3.7584 H       1  UNL1        0.0000
     39 H           0.3704    8.8617    3.3958 H       1  UNL1        0.0000
     40 H          -2.0381   10.7882    0.5147 H       1  UNL1        0.0000
     41 H          -1.7987   12.4850    0.8678 H       1  UNL1        0.0000
     42 H          -2.7063   11.4771    1.9771 H       1  UNL1        0.0000
@<TRIPOS>BOND
     1    34    15    1
     2    40    17    1
     3    41    17    1
     4    19     1    1
     5    18     1    1
     6    35    15    1
     7    15    36    1
     8    15    14    1
     9    17    42    1
    10    17    14    1
    11     1     2    1
    12    37    16    1
    13    14    16    1
    14    14     9    1
    15    16    39    1
    16    16    38    1
    17    20     4    1
    18     2     9    1
    19     2     3    1
    20     4     3   ar
    21     4     5   ar
    22    21     5    1
    23     9    10    1
    24     3     8   ar
    25     5     6   ar
    26     8    24    1
    27     8     7   ar
    28     6     7   ar
    29     6    22    1
    30     7    23    1
    31    26    11    1
    32    27    11    1
    33    10    11    1
    34    10    12    1
    35    10    13    1
    36    11    25    1
    37    33    13    1
    38    29    12    1
    39    30    12    1
    40    12    28    1
    41    13    32    1
    42    13    31    1
