@<TRIPOS>MOLECULE
1,4
 41 41 0 0 0
SMALL
GASTEIGER

@<TRIPOS>ATOM
      1 P          -5.9194   -0.3612   16.1269 P.3     1  UNL1        0.0000
      2 SI         -7.0737   -2.0501   17.0942 Si      1  UNL1        0.0000
      3 SI         -6.4751    1.5549   17.2124 Si      1  UNL1        0.0000
      4 C          -6.1502    0.2771   13.5570 C.2     1  UNL1        0.0000
      5 C          -6.8916   -0.0767   14.6202 C.2     1  UNL1        0.0000
      6 C          -6.8262    0.6004   12.2937 C.ar    1  UNL1        0.0000
      7 C          -7.7126    1.6779   12.2190 C.ar    1  UNL1        0.0000
      8 C          -8.3253    2.0088   11.0253 C.ar    1  UNL1        0.0000
      9 C          -8.0809    1.2619    9.8849 C.ar    1  UNL1        0.0000
     10 C          -7.2168    0.1800    9.9476 C.ar    1  UNL1        0.0000
     11 C          -6.5888   -0.1438   11.1349 C.ar    1  UNL1        0.0000
     12 C          -7.3610   -3.3694   15.7371 C.3     1  UNL1        0.0000
     13 C          -8.7775   -1.5997   17.8411 C.3     1  UNL1        0.0000
     14 C          -5.9405   -2.7155   18.4787 C.3     1  UNL1        0.0000
     15 C          -5.6845    2.8952   16.1061 C.3     1  UNL1        0.0000
     16 C          -5.6923    1.4861   18.9476 C.3     1  UNL1        0.0000
     17 C          -8.3522    1.9359   17.3055 C.3     1  UNL1        0.0000
     18 H          -7.9780   -0.2002   14.6218 H       1  UNL1        0.0000
     19 H          -7.9070    2.2597   13.1112 H       1  UNL1        0.0000
     20 H          -9.0019    2.8506   10.9844 H       1  UNL1        0.0000
     21 H          -8.5616    1.5195    8.9530 H       1  UNL1        0.0000
     22 H          -7.0288   -0.4108    9.0622 H       1  UNL1        0.0000
     23 H          -5.9139   -0.9900   11.1801 H       1  UNL1        0.0000
     24 H          -6.4297   -3.8244   15.4150 H       1  UNL1        0.0000
     25 H          -8.0102   -4.1650   16.0900 H       1  UNL1        0.0000
     26 H          -7.8271   -2.9271   14.8610 H       1  UNL1        0.0000
     27 H          -8.6691   -0.9586   18.7097 H       1  UNL1        0.0000
     28 H          -9.4086   -1.0865   17.1230 H       1  UNL1        0.0000
     29 H          -9.3022   -2.4958   18.1581 H       1  UNL1        0.0000
     30 H          -4.9219   -2.8461   18.1262 H       1  UNL1        0.0000
     31 H          -5.9058   -2.0242   19.3147 H       1  UNL1        0.0000
     32 H          -6.2886   -3.6719   18.8550 H       1  UNL1        0.0000
     33 H          -5.7079    2.5596   15.0642 H       1  UNL1        0.0000
     34 H          -6.1937    3.8525   16.1695 H       1  UNL1        0.0000
     35 H          -4.6472    3.0507   16.3876 H       1  UNL1        0.0000
     36 H          -6.1749    0.7443   19.5760 H       1  UNL1        0.0000
     37 H          -4.6416    1.2264   18.8657 H       1  UNL1        0.0000
     38 H          -5.7634    2.4448   19.4500 H       1  UNL1        0.0000
     39 H          -8.8505    1.3358   18.0578 H       1  UNL1        0.0000
     40 H          -8.5141    2.9786   17.5598 H       1  UNL1        0.0000
     41 H          -8.8409    1.7500   16.3542 H       1  UNL1        0.0000
@<TRIPOS>BOND
     1    21     9    1
     2    22    10    1
     3     9    10   ar
     4     9     8   ar
     5    10    11   ar
     6    20     8    1
     7     8     7   ar
     8    11    23    1
     9    11     6   ar
    10     7     6   ar
    11     7    19    1
    12     6     4    1
    13     4     5    2
    14     5    18    1
    15     5     1    1
    16    26    12    1
    17    33    15    1
    18    24    12    1
    19    12    25    1
    20    12     2    1
    21    15    34    1
    22    15    35    1
    23    15     3    1
    24     1     2    1
    25     1     3    1
    26    41    17    1
    27     2    13    1
    28     2    14    1
    29    28    13    1
    30     3    17    1
    31     3    16    1
    32    17    40    1
    33    17    39    1
    34    13    29    1
    35    13    27    1
    36    30    14    1
    37    14    32    1
    38    14    31    1
    39    37    16    1
    40    16    38    1
    41    16    36    1
