@<TRIPOS>MOLECULE
1,12
 134 141 0 0 0
SMALL
GASTEIGER

@<TRIPOS>ATOM
      1 P           8.3774    9.3330   23.4810 P.3     1  UNL1        0.0000
      2 SI          4.0790    9.2978   20.5242 Si      1  UNL1        0.0000
      3 SI          4.4502    8.1167   22.4635 Si      1  UNL1        0.0000
      4 SI          9.9711    9.6519   26.0162 Si      1  UNL1        0.0000
      5 SI         11.1703    8.1682   23.2831 Si      1  UNL1        0.0000
      6 O           5.4322   10.1916   20.7606 O.3     1  UNL1        0.0000
      7 N           4.2080    8.3375   19.0910 N.pl3   1  UNL1        0.0000
      8 N           2.6785   10.1039   19.9496 N.pl3   1  UNL1        0.0000
      9 N           4.3485    8.2716   24.1939 N.pl3   1  UNL1        0.0000
     10 N           3.9926    6.4501   22.5469 N.pl3   1  UNL1        0.0000
     11 N           6.1837    8.6177   22.2209 N.pl3   1  UNL1        0.0000
     12 C           6.4219    9.7592   21.5452 C.3     1  UNL1        0.0000
     13 C           7.1945    8.1766   23.1001 C.2     1  UNL1        0.0000
     14 C           7.1267    6.7914   23.5519 C.ar    1  UNL1        0.0000
     15 C           7.2168    6.4598   24.9027 C.ar    1  UNL1        0.0000
     16 H           7.2635    7.2502   25.6382 H       1  UNL1        0.0000
     17 C           7.2101    5.1379   25.3040 C.ar    1  UNL1        0.0000
     18 H           7.2774    4.8957   26.3540 H       1  UNL1        0.0000
     19 C           7.1017    4.1260   24.3656 C.ar    1  UNL1        0.0000
     20 H           7.0956    3.0937   24.6808 H       1  UNL1        0.0000
     21 C           6.9888    4.4443   23.0222 C.ar    1  UNL1        0.0000
     22 H           6.8981    3.6580   22.2865 H       1  UNL1        0.0000
     23 C           7.0023    5.7638   22.6169 C.ar    1  UNL1        0.0000
     24 H           6.9338    6.0103   21.5665 H       1  UNL1        0.0000
     25 C           9.6946    8.5542   24.4601 C.3     1  UNL1        0.0000
     26 H           9.3147    7.5860   24.7899 H       1  UNL1        0.0000
     27 C          11.1990   11.0664   25.6915 C.3     1  UNL1        0.0000
     28 H          12.2052   10.6937   25.5319 H       1  UNL1        0.0000
     29 H          11.2328   11.7459   26.5375 H       1  UNL1        0.0000
     30 H          10.9147   11.6442   24.8183 H       1  UNL1        0.0000
     31 C           8.2803   10.3996   26.4965 C.3     1  UNL1        0.0000
     32 H           7.5223    9.6289   26.6093 H       1  UNL1        0.0000
     33 H           7.9361   11.0861   25.7252 H       1  UNL1        0.0000
     34 H           8.3277   10.9516   27.4303 H       1  UNL1        0.0000
     35 C          10.5872    8.5209   27.4236 C.3     1  UNL1        0.0000
     36 H           9.8758    7.7323   27.6476 H       1  UNL1        0.0000
     37 H          10.7421    9.0903   28.3337 H       1  UNL1        0.0000
     38 H          11.5293    8.0482   27.1688 H       1  UNL1        0.0000
     39 C          11.9392    9.7290   22.5132 C.3     1  UNL1        0.0000
     40 H          12.6953   10.1697   23.1543 H       1  UNL1        0.0000
     41 H          11.1826   10.4860   22.3213 H       1  UNL1        0.0000
     42 H          12.4139    9.4955   21.5648 H       1  UNL1        0.0000
     43 C          12.4845    7.2212   24.2878 C.3     1  UNL1        0.0000
     44 H          12.0599    6.3624   24.7966 H       1  UNL1        0.0000
     45 H          12.9458    7.8560   25.0364 H       1  UNL1        0.0000
     46 H          13.2722    6.8599   23.6361 H       1  UNL1        0.0000
     47 C          10.4535    7.0244   21.9340 C.3     1  UNL1        0.0000
     48 H          10.1001    6.0864   22.3539 H       1  UNL1        0.0000
     49 H          11.1857    6.7900   21.1679 H       1  UNL1        0.0000
     50 H           9.6066    7.5016   21.4464 H       1  UNL1        0.0000
     51 C           2.9977    8.3684   18.4137 C.ar    1  UNL1        0.0000
     52 C           2.1365    9.3712   18.9012 C.ar    1  UNL1        0.0000
     53 C           0.8744    9.5080   18.3542 C.ar    1  UNL1        0.0000
     54 H           0.1919   10.2612   18.7129 H       1  UNL1        0.0000
     55 C           0.4658    8.6582   17.3351 C.ar    1  UNL1        0.0000
     56 H          -0.5226    8.7716   16.9167 H       1  UNL1        0.0000
     57 C           1.3090    7.6726   16.8642 C.ar    1  UNL1        0.0000
     58 H           0.9853    7.0088   16.0772 H       1  UNL1        0.0000
     59 C           2.5789    7.5221   17.4047 C.ar    1  UNL1        0.0000
     60 H           3.2258    6.7433   17.0337 H       1  UNL1        0.0000
     61 C           5.3396    7.5431   18.6781 C.3     1  UNL1        0.0000
     62 H           5.0009    6.5595   18.3337 H       1  UNL1        0.0000
     63 H           5.9551    7.3894   19.5707 H       1  UNL1        0.0000
     64 C           6.2442    8.1708   17.5870 C.3     1  UNL1        0.0000
     65 C           6.6037    9.6125   17.9397 C.3     1  UNL1        0.0000
     66 H           7.1204    9.6661   18.8963 H       1  UNL1        0.0000
     67 H           5.7105   10.2299   17.9985 H       1  UNL1        0.0000
     68 H           7.2575   10.0310   17.1781 H       1  UNL1        0.0000
     69 C           7.5246    7.3322   17.5222 C.3     1  UNL1        0.0000
     70 H           8.0699    7.3875   18.4623 H       1  UNL1        0.0000
     71 H           8.1747    7.7023   16.7334 H       1  UNL1        0.0000
     72 H           7.2957    6.2881   17.3157 H       1  UNL1        0.0000
     73 C           5.5605    8.1513   16.2189 C.3     1  UNL1        0.0000
     74 H           5.3315    7.1329   15.9113 H       1  UNL1        0.0000
     75 H           6.2192    8.5881   15.4714 H       1  UNL1        0.0000
     76 H           4.6387    8.7265   16.2387 H       1  UNL1        0.0000
     77 C           2.0429   11.2951   20.4522 C.3     1  UNL1        0.0000
     78 H           2.3059   11.3936   21.5047 H       1  UNL1        0.0000
     79 H           0.9577   11.1753   20.3919 H       1  UNL1        0.0000
     80 C           2.4529   12.6058   19.7400 C.3     1  UNL1        0.0000
     81 C           3.9292   12.9001   19.9990 C.3     1  UNL1        0.0000
     82 H           4.5558   12.1143   19.5884 H       1  UNL1        0.0000
     83 H           4.1309   12.9748   21.0655 H       1  UNL1        0.0000
     84 H           4.2164   13.8395   19.5328 H       1  UNL1        0.0000
     85 C           1.6007   13.7340   20.3284 C.3     1  UNL1        0.0000
     86 H           1.7618   13.8167   21.4009 H       1  UNL1        0.0000
     87 H           0.5419   13.5545   20.1520 H       1  UNL1        0.0000
     88 H           1.8668   14.6827   19.8689 H       1  UNL1        0.0000
     89 C           2.2156   12.5209   18.2323 C.3     1  UNL1        0.0000
     90 H           2.7743   11.6943   17.8009 H       1  UNL1        0.0000
     91 H           2.5433   13.4411   17.7536 H       1  UNL1        0.0000
     92 H           1.1614   12.3772   18.0081 H       1  UNL1        0.0000
     93 C           4.1446    7.0387   24.7929 C.ar    1  UNL1        0.0000
     94 C           3.9793    6.0001   23.8589 C.ar    1  UNL1        0.0000
     95 C           3.8784    4.6923   24.2930 C.ar    1  UNL1        0.0000
     96 H           3.8040    3.8815   23.5876 H       1  UNL1        0.0000
     97 C           3.8897    4.4147   25.6518 C.ar    1  UNL1        0.0000
     98 H           3.8024    3.3920   25.9857 H       1  UNL1        0.0000
     99 C           4.0168    5.4374   26.5702 C.ar    1  UNL1        0.0000
    100 H           4.0217    5.2198   27.6277 H       1  UNL1        0.0000
    101 C           4.1537    6.7507   26.1458 C.ar    1  UNL1        0.0000
    102 H           4.2769    7.5295   26.8806 H       1  UNL1        0.0000
    103 C           4.6517    9.4526   24.9584 C.3     1  UNL1        0.0000
    104 H           5.3711   10.0476   24.3814 H       1  UNL1        0.0000
    105 H           5.1486    9.1560   25.8859 H       1  UNL1        0.0000
    106 C           3.4475   10.3573   25.2976 C.3     1  UNL1        0.0000
    107 C           2.8160   10.8673   24.0035 C.3     1  UNL1        0.0000
    108 H           3.5643   11.3750   23.3985 H       1  UNL1        0.0000
    109 H           2.0166   11.5714   24.2252 H       1  UNL1        0.0000
    110 H           2.3986   10.0389   23.4333 H       1  UNL1        0.0000
    111 C           3.9680   11.5447   26.1112 C.3     1  UNL1        0.0000
    112 H           4.4608   11.2058   27.0201 H       1  UNL1        0.0000
    113 H           3.1455   12.1982   26.3921 H       1  UNL1        0.0000
    114 H           4.6812   12.1235   25.5301 H       1  UNL1        0.0000
    115 C           2.3954    9.5990   26.1075 C.3     1  UNL1        0.0000
    116 H           2.7816    9.3246   27.0860 H       1  UNL1        0.0000
    117 H           2.0890    8.6931   25.5903 H       1  UNL1        0.0000
    118 H           1.5181   10.2249   26.2560 H       1  UNL1        0.0000
    119 C           3.5529    5.6255   21.4507 C.3     1  UNL1        0.0000
    120 H           3.9854    4.6250   21.5487 H       1  UNL1        0.0000
    121 H           3.9511    6.0716   20.5387 H       1  UNL1        0.0000
    122 C           2.0163    5.4976   21.2737 C.3     1  UNL1        0.0000
    123 C           1.3422    6.8652   21.3716 C.3     1  UNL1        0.0000
    124 H           1.7111    7.5351   20.6005 H       1  UNL1        0.0000
    125 H           1.5218    7.3122   22.3464 H       1  UNL1        0.0000
    126 H           0.2685    6.7563   21.2383 H       1  UNL1        0.0000
    127 C           1.7685    4.9141   19.8792 C.3     1  UNL1        0.0000
    128 H           2.2893    3.9661   19.7599 H       1  UNL1        0.0000
    129 H           2.1096    5.6014   19.1088 H       1  UNL1        0.0000
    130 H           0.7061    4.7404   19.7275 H       1  UNL1        0.0000
    131 C           1.3920    4.5662   22.3147 C.3     1  UNL1        0.0000
    132 H           1.8281    3.5715   22.2589 H       1  UNL1        0.0000
    133 H           0.3235    4.4735   22.1303 H       1  UNL1        0.0000
    134 H           1.5327    4.9536   23.3196 H       1  UNL1        0.0000
@<TRIPOS>BOND
     1    75    73    1
     2    74    73    1
     3    58    57    1
     4    73    76    1
     5    73    64    1
     6    71    69    1
     7    57    55   ar
     8    57    59   ar
     9    56    55    1
    10    60    59    1
    11    68    65    1
    12    72    69    1
    13    55    53   ar
    14    59    51   ar
    15    69    64    1
    16    69    70    1
    17    64    65    1
    18    64    61    1
    19    91    89    1
    20    90    89    1
    21    65    67    1
    22    65    66    1
    23    92    89    1
    24    89    80    1
    25    62    61    1
    26    53    54    1
    27    53    52   ar
    28    51    52   ar
    29    51     7    1
    30    61     7    1
    31    61    63    1
    32    52     8    1
    33     7     2    1
    34   129   127    1
    35    84    81    1
    36    82    81    1
    37   130   127    1
    38    80    81    1
    39    80    85    1
    40    80    77    1
    41   128   127    1
    42    88    85    1
    43   127   122    1
    44     8    77    1
    45     8     2    1
    46    81    83    1
    47    87    85    1
    48    85    86    1
    49    79    77    1
    50    77    78    1
    51     2     6    1
    52     2     3    1
    53   121   119    1
    54   124   123    1
    55     6    12    1
    56    49    47    1
    57   126   123    1
    58   122   123    1
    59   122   119    1
    60   122   131    1
    61   123   125    1
    62    50    47    1
    63   119   120    1
    64   119    10    1
    65    12    11    1
    66    42    39    1
    67    24    23    1
    68    47    48    1
    69    47     5    1
    70   133   131    1
    71    11     3    1
    72    11    13    1
    73   132   131    1
    74    22    21    1
    75   131   134    1
    76    41    39    1
    77     3    10    1
    78     3     9    1
    79    39    40    1
    80    39     5    1
    81    10    94    1
    82    23    21   ar
    83    23    14   ar
    84    21    19   ar
    85    13     1    2
    86    13    14    1
    87     5    43    1
    88     5    25    1
    89   108   107    1
    90   110   107    1
    91     1    25    1
    92    14    15   ar
    93    96    95    1
    94    46    43    1
    95    94    95   ar
    96    94    93   ar
    97   107   109    1
    98   107   106    1
    99     9    93    1
   100     9   103    1
   101    43    44    1
   102    43    45    1
   103    95    97   ar
   104    19    20    1
   105    19    17   ar
   106   104   103    1
   107    25    26    1
   108    25     4    1
   109    93   101   ar
   110    30    27    1
   111    15    17   ar
   112    15    16    1
   113   103   106    1
   114   103   105    1
   115   106   115    1
   116   106   111    1
   117    17    18    1
   118   114   111    1
   119    28    27    1
   120   117   115    1
   121    97    98    1
   122    97    99   ar
   123    27     4    1
   124    27    29    1
   125    33    31    1
   126     4    31    1
   127     4    35    1
   128   115   118    1
   129   115   116    1
   130   111   113    1
   131   111   112    1
   132   101    99   ar
   133   101   102    1
   134    31    32    1
   135    31    34    1
   136    99   100    1
   137    38    35    1
   138    35    36    1
   139    35    37    1
   140     2    52    0
   141     3    94    0
