@<TRIPOS>MOLECULE
1,3
 33 35 0 0 0
SMALL
GASTEIGER

@<TRIPOS>ATOM
      1 P           6.3872    1.1240   16.9572 P.3     1  UNL1       -0.0125
      2 C           5.0681    2.1002   17.7578 C.ar    1  UNL1       -0.0069
      3 C           4.6658    2.9368   16.6959 C.ar    1  UNL1       -0.0091
      4 C           3.7292    3.9259   16.9631 C.ar    1  UNL1       -0.0534
      5 H           3.4176    4.6058   16.1804 H       1  UNL1        0.0624
      6 C           3.1990    4.0433   18.2416 C.ar    1  UNL1       -0.0611
      7 H           2.4651    4.8119   18.4465 H       1  UNL1        0.0618
      8 C           3.6015    3.2010   19.2670 C.ar    1  UNL1       -0.0611
      9 H           3.1783    3.3166   20.2552 H       1  UNL1        0.0618
     10 C           4.5615    2.2241   19.0402 C.ar    1  UNL1       -0.0530
     11 H           4.9032    1.5996   19.8548 H       1  UNL1        0.0624
     12 C           7.8319    1.3300   18.0679 C.ar    1  UNL1       -0.0147
     13 C           8.9518    2.0087   17.6088 C.ar    1  UNL1       -0.0535
     14 H           8.9645    2.3573   16.5848 H       1  UNL1        0.0624
     15 C          10.0265    2.2385   18.4476 C.ar    1  UNL1       -0.0611
     16 H          10.8917    2.7744   18.0847 H       1  UNL1        0.0618
     17 C           9.9861    1.7889   19.7561 C.ar    1  UNL1       -0.0617
     18 H          10.8198    1.9734   20.4178 H       1  UNL1        0.0618
     19 C           8.8772    1.0960   20.2166 C.ar    1  UNL1       -0.0611
     20 H           8.8510    0.7381   21.2359 H       1  UNL1        0.0618
     21 C           7.8045    0.8616   19.3773 C.ar    1  UNL1       -0.0535
     22 H           6.9456    0.3088   19.7311 H       1  UNL1        0.0624
     23 C           6.0606   -0.6384   17.3291 C.ar    1  UNL1       -0.0147
     24 C           6.9329   -1.5721   16.7745 C.ar    1  UNL1       -0.0535
     25 H           7.7456   -1.2243   16.1479 H       1  UNL1        0.0624
     26 C           6.7662   -2.9209   17.0222 C.ar    1  UNL1       -0.0611
     27 H           7.4444   -3.6407   16.5861 H       1  UNL1        0.0618
     28 C           5.7282   -3.3489   17.8356 C.ar    1  UNL1       -0.0617
     29 H           5.5992   -4.4027   18.0359 H       1  UNL1        0.0618
     30 C           4.8573   -2.4259   18.3884 C.ar    1  UNL1       -0.0611
     31 H           4.0465   -2.7585   19.0203 H       1  UNL1        0.0618
     32 C           5.0147   -1.0748   18.1313 C.ar    1  UNL1       -0.0535
     33 H           4.3184   -0.3588   18.5427 H       1  UNL1        0.0624
@<TRIPOS>BOND
     1    25    24    1
     2     5     4    1
     3    14    13    1
     4    27    26    1
     5     3     4   ar
     6     3     2   ar
     7    24    26   ar
     8    24    23   ar
     9     1    23    1
    10     1     2    1
    11     1    12    1
    12     4     6   ar
    13    26    28   ar
    14    23    32   ar
    15    13    12   ar
    16    13    15   ar
    17     2    10   ar
    18    28    29    1
    19    28    30   ar
    20    12    21   ar
    21    16    15    1
    22    32    30   ar
    23    32    33    1
    24     6     7    1
    25     6     8   ar
    26    30    31    1
    27    15    17   ar
    28    10     8   ar
    29    10    11    1
    30     8     9    1
    31    21    22    1
    32    21    19   ar
    33    17    19   ar
    34    17    18    1
    35    19    20    1
