@<TRIPOS>MOLECULE
1,7
 33 35 0 0 0
SMALL
GASTEIGER

@<TRIPOS>ATOM
      1 P           3.6799    1.6798    4.3620 P.3     1  UNL1       -0.0125
      2 C           3.1301    0.2029    3.4695 C.ar    1  UNL1       -0.0069
      3 C           3.7448   -0.9215    2.9489 C.ar    1  UNL1       -0.0530
      4 C           2.9332   -1.9232    2.4352 C.ar    1  UNL1       -0.0611
      5 C           1.5551   -1.7911    2.4850 C.ar    1  UNL1       -0.0611
      6 C           0.9549   -0.6694    3.0443 C.ar    1  UNL1       -0.0534
      7 C           1.7295    0.3703    3.5485 C.ar    1  UNL1       -0.0091
      8 C           4.8304    1.0523    5.6370 C.ar    1  UNL1       -0.0147
      9 C           5.8041    1.8769    6.1940 C.ar    1  UNL1       -0.0535
     10 C           6.6156    1.4083    7.2114 C.ar    1  UNL1       -0.0611
     11 C           6.4626    0.1153    7.6847 C.ar    1  UNL1       -0.0617
     12 C           5.4931   -0.7095    7.1367 C.ar    1  UNL1       -0.0611
     13 C           4.6770   -0.2432    6.1232 C.ar    1  UNL1       -0.0535
     14 C           4.8480    2.6366    3.3321 C.ar    1  UNL1       -0.0147
     15 C           5.5897    2.0548    2.3130 C.ar    1  UNL1       -0.0535
     16 C           6.4570    2.8289    1.5620 C.ar    1  UNL1       -0.0611
     17 C           6.5894    4.1825    1.8242 C.ar    1  UNL1       -0.0617
     18 C           5.8474    4.7691    2.8370 C.ar    1  UNL1       -0.0611
     19 C           4.9766    3.9992    3.5849 C.ar    1  UNL1       -0.0535
     20 H           4.8211   -1.0374    2.9525 H       1  UNL1        0.0624
     21 H           3.3759   -2.8110    2.0057 H       1  UNL1        0.0618
     22 H           0.9339   -2.5835    2.0877 H       1  UNL1        0.0618
     23 H          -0.1262   -0.6250    3.0673 H       1  UNL1        0.0624
     24 H           5.9311    2.8839    5.8197 H       1  UNL1        0.0624
     25 H           7.3709    2.0535    7.6371 H       1  UNL1        0.0618
     26 H           7.0985   -0.2491    8.4781 H       1  UNL1        0.0618
     27 H           5.3743   -1.7194    7.5026 H       1  UNL1        0.0618
     28 H           3.9161   -0.8800    5.6925 H       1  UNL1        0.0624
     29 H           5.4768    1.0018    2.1047 H       1  UNL1        0.0624
     30 H           7.0308    2.3757    0.7664 H       1  UNL1        0.0618
     31 H           7.2666    4.7831    1.2347 H       1  UNL1        0.0618
     32 H           5.9454    5.8268    3.0360 H       1  UNL1        0.0618
     33 H           4.3752    4.4462    4.3673 H       1  UNL1        0.0624
@<TRIPOS>BOND
     1    30    16    1
     2    31    17    1
     3    16    17   ar
     4    16    15   ar
     5    17    18   ar
     6    21     4    1
     7    22     5    1
     8    29    15    1
     9    15    14   ar
    10     4     5   ar
    11     4     3   ar
    12     5     6   ar
    13    18    32    1
    14    18    19   ar
    15     3    20    1
    16     3     2   ar
    17     6    23    1
    18     6     7   ar
    19    14    19   ar
    20    14     1    1
    21     2     7   ar
    22     2     1    1
    23    19    33    1
    24     1     8    1
    25     8    13   ar
    26     8     9   ar
    27    28    13    1
    28    24     9    1
    29    13    12   ar
    30     9    10   ar
    31    12    27    1
    32    12    11   ar
    33    10    25    1
    34    10    11   ar
    35    11    26    1
