@<TRIPOS>MOLECULE
1,7
 26 27 0 0 0
SMALL
GASTEIGER

@<TRIPOS>ATOM
      1 P          -2.5714    0.9719   -2.3215 P.3     1  UNL1       -0.0463
      2 C          -4.1839    0.1594   -2.4481 C.ar    1  UNL1       -0.0115
      3 C          -5.4735    0.4983   -2.0817 C.ar    1  UNL1       -0.0533
      4 C          -6.4867   -0.3992   -2.3872 C.ar    1  UNL1       -0.0611
      5 C          -6.1893   -1.5779   -3.0526 C.ar    1  UNL1       -0.0611
      6 C          -4.8873   -1.8970   -3.4181 C.ar    1  UNL1       -0.0534
      7 C          -3.8390   -1.0355   -3.1122 C.ar    1  UNL1       -0.0094
      8 C          -2.8088    2.6378   -3.0319 C.ar    1  UNL1       -0.0192
      9 C          -1.8954    3.6529   -2.7601 C.ar    1  UNL1       -0.0538
     10 C          -2.0413    4.8993   -3.3407 C.ar    1  UNL1       -0.0612
     11 C          -3.0972    5.1445   -4.2042 C.ar    1  UNL1       -0.0617
     12 C          -4.0033    4.1361   -4.4896 C.ar    1  UNL1       -0.0612
     13 C          -3.8560    2.8862   -3.9143 C.ar    1  UNL1       -0.0538
     14 C          -2.3965    1.3852   -0.5329 C.3     1  UNL1       -0.0363
     15 H          -5.6906    1.4302   -1.5757 H       1  UNL1        0.0624
     16 H          -7.5079   -0.1786   -2.1098 H       1  UNL1        0.0618
     17 H          -6.9909   -2.2647   -3.2915 H       1  UNL1        0.0618
     18 H          -4.7127   -2.8308   -3.9374 H       1  UNL1        0.0624
     19 H          -1.0692    3.4606   -2.0895 H       1  UNL1        0.0624
     20 H          -1.3305    5.6833   -3.1214 H       1  UNL1        0.0618
     21 H          -3.2123    6.1193   -4.6550 H       1  UNL1        0.0618
     22 H          -4.8256    4.3243   -5.1652 H       1  UNL1        0.0618
     23 H          -4.5582    2.0930   -4.1343 H       1  UNL1        0.0624
     24 H          -1.3987    1.7607   -0.3125 H       1  UNL1        0.0283
     25 H          -2.5656    0.4645    0.0222 H       1  UNL1        0.0283
     26 H          -3.1421    2.1317   -0.2599 H       1  UNL1        0.0283
@<TRIPOS>BOND
     1    22    12    1
     2    21    11    1
     3    12    11   ar
     4    12    13   ar
     5    11    10   ar
     6    23    13    1
     7    18     6    1
     8    13     8   ar
     9     6     7   ar
    10     6     5   ar
    11    10    20    1
    12    10     9   ar
    13    17     5    1
    14     7     2   ar
    15     5     4   ar
    16     8     9   ar
    17     8     1    1
    18     9    19    1
    19     2     1    1
    20     2     3   ar
    21     4    16    1
    22     4     3   ar
    23     1    14    1
    24     3    15    1
    25    14    24    1
    26    14    26    1
    27    14    25    1
