@<TRIPOS>MOLECULE
1,7
 26 27 0 0 0
SMALL
GASTEIGER

@<TRIPOS>ATOM
      1 P           2.4651    2.0403    4.7127 P.3     1  UNL1       -0.0463
      2 C           4.2395    2.2021    4.3929 C.ar    1  UNL1       -0.0115
      3 C           5.3726    2.2918    5.1810 C.ar    1  UNL1       -0.0533
      4 C           6.6039    2.3304    4.5420 C.ar    1  UNL1       -0.0611
      5 C           6.6699    2.2595    3.1597 C.ar    1  UNL1       -0.0611
      6 C           5.5225    2.1438    2.3849 C.ar    1  UNL1       -0.0534
      7 C           4.2686    2.1152    2.9850 C.ar    1  UNL1       -0.0094
      8 C           2.3555    0.8021    6.0841 C.3     1  UNL1       -0.0363
      9 C           1.9281    3.5122    5.6553 C.ar    1  UNL1       -0.0192
     10 C           2.8119    4.5050    6.0547 C.ar    1  UNL1       -0.0538
     11 C           2.3459    5.6026    6.7573 C.ar    1  UNL1       -0.0612
     12 C           0.9994    5.7176    7.0594 C.ar    1  UNL1       -0.0617
     13 C           0.1116    4.7338    6.6533 C.ar    1  UNL1       -0.0612
     14 C           0.5742    3.6376    5.9507 C.ar    1  UNL1       -0.0538
     15 H           5.3124    2.3303    6.2614 H       1  UNL1        0.0624
     16 H           7.5123    2.4125    5.1223 H       1  UNL1        0.0618
     17 H           7.6375    2.2903    2.6758 H       1  UNL1        0.0618
     18 H           5.6284    2.0860    1.3090 H       1  UNL1        0.0624
     19 H           2.9491    1.1614    6.9246 H       1  UNL1        0.0283
     20 H           1.3220    0.6781    6.4039 H       1  UNL1        0.0283
     21 H           2.7515   -0.1521    5.7421 H       1  UNL1        0.0283
     22 H           3.8580    4.4152    5.8044 H       1  UNL1        0.0624
     23 H           3.0357    6.3742    7.0681 H       1  UNL1        0.0618
     24 H           0.6389    6.5766    7.6065 H       1  UNL1        0.0618
     25 H          -0.9405    4.8274    6.8824 H       1  UNL1        0.0618
     26 H          -0.1123    2.8706    5.6151 H       1  UNL1        0.0624
@<TRIPOS>BOND
     1    18     6    1
     2     6     7   ar
     3     6     5   ar
     4    17     5    1
     5     7     2   ar
     6     5     4   ar
     7     2     1    1
     8     2     3   ar
     9     4    16    1
    10     4     3   ar
    11     1     9    1
    12     1     8    1
    13     3    15    1
    14    26    14    1
    15     9    14   ar
    16     9    10   ar
    17    21     8    1
    18    22    10    1
    19    14    13   ar
    20    10    11   ar
    21     8    20    1
    22     8    19    1
    23    13    25    1
    24    13    12   ar
    25    11    12   ar
    26    11    23    1
    27    12    24    1
