@<TRIPOS>MOLECULE
1,7
 19 19 0 0 0
SMALL
GASTEIGER

@<TRIPOS>ATOM
      1 P           2.2768    2.2136   -1.3316 P.3     1  UNL1       -0.0803
      2 C           2.9130    0.7988   -0.3964 C.ar    1  UNL1       -0.0162
      3 C           2.9040    0.4419    0.9385 C.ar    1  UNL1       -0.0536
      4 C           3.5034   -0.7588    1.2922 C.ar    1  UNL1       -0.0611
      5 C           4.0782   -1.5576    0.3174 C.ar    1  UNL1       -0.0611
      6 C           4.0679   -1.1876   -1.0221 C.ar    1  UNL1       -0.0534
      7 C           3.4830    0.0108   -1.4166 C.ar    1  UNL1       -0.0097
      8 C           0.5852    2.5168   -0.6504 C.3     1  UNL1       -0.0405
      9 C           3.1470    3.6594   -0.5949 C.3     1  UNL1       -0.0405
     10 H           2.4492    1.0724    1.6917 H       1  UNL1        0.0624
     11 H           3.5241   -1.0700    2.3272 H       1  UNL1        0.0618
     12 H           4.5442   -2.4906    0.6068 H       1  UNL1        0.0618
     13 H           4.5362   -1.8462   -1.7423 H       1  UNL1        0.0624
     14 H          -0.0635    1.6768   -0.8872 H       1  UNL1        0.0280
     15 H           0.1694    3.4291   -1.0764 H       1  UNL1        0.0280
     16 H           0.6516    2.6237    0.4317 H       1  UNL1        0.0280
     17 H           4.2157    3.5118   -0.7276 H       1  UNL1        0.0280
     18 H           2.9108    3.7230    0.4669 H       1  UNL1        0.0280
     19 H           2.8401    4.5769   -1.0956 H       1  UNL1        0.0280
@<TRIPOS>BOND
     1    13     6    1
     2     7     6   ar
     3     7     2   ar
     4     1     8    1
     5     1     9    1
     6     1     2    1
     7    19     9    1
     8    15     8    1
     9     6     5   ar
    10    14     8    1
    11    17     9    1
    12     8    16    1
    13     9    18    1
    14     2     3   ar
    15     5    12    1
    16     5     4   ar
    17     3     4   ar
    18     3    10    1
    19     4    11    1
