@<TRIPOS>MOLECULE
1,6
 44 43 0 0 0
SMALL
GASTEIGER

@<TRIPOS>ATOM
      1 P           9.6765    2.7592    8.8757 P.3     1  UNL1        0.0000
      2 S          11.9418    4.0634    7.6701 S.3     1  UNL1        0.0000
      3 SI          8.4805   -0.0638    8.2377 Si      1  UNL1        0.0000
      4 SI         10.9099    0.4725   10.4258 Si      1  UNL1        0.0000
      5 O          11.3516    4.9901    6.7207 O.3     1  UNL1        0.0000
      6 C           8.3956    3.3573    7.8312 C.3     1  UNL1        0.0000
      7 H           8.7756    3.8628    6.9426 H       1  UNL1        0.0000
      8 H           7.5462    2.7175    7.6277 H       1  UNL1        0.0000
      9 C          11.2875    2.5473    8.1041 C.3     1  UNL1        0.0000
     10 H          11.1737    1.9681    7.1854 H       1  UNL1        0.0000
     11 C          12.3046    4.9379    9.2026 C.3     1  UNL1        0.0000
     12 H          13.0401    4.3656    9.7519 H       1  UNL1        0.0000
     13 H          11.3719    4.9935    9.7660 H       1  UNL1        0.0000
     14 H          12.6644    5.9306    8.9583 H       1  UNL1        0.0000
     15 C          13.6187    3.6902    7.0624 C.3     1  UNL1        0.0000
     16 H          14.0891    3.0176    7.7679 H       1  UNL1        0.0000
     17 H          14.1703    4.6180    6.9664 H       1  UNL1        0.0000
     18 H          13.5289    3.2174    6.0907 H       1  UNL1        0.0000
     19 C           9.3310    1.0897    9.5196 C.3     1  UNL1        0.0000
     20 H           8.5830    1.2583   10.3011 H       1  UNL1        0.0000
     21 C           9.2912    0.0553    6.5130 C.3     1  UNL1        0.0000
     22 H           9.2565    1.0721    6.1321 H       1  UNL1        0.0000
     23 H           8.7672   -0.5779    5.8034 H       1  UNL1        0.0000
     24 H          10.3283   -0.2645    6.5336 H       1  UNL1        0.0000
     25 C           8.5819   -1.8775    8.8260 C.3     1  UNL1        0.0000
     26 H           9.5972   -2.2192    8.9861 H       1  UNL1        0.0000
     27 H           8.1292   -2.5283    8.0852 H       1  UNL1        0.0000
     28 H           8.0365   -2.0145    9.7534 H       1  UNL1        0.0000
     29 C           6.6068    0.3100    8.0994 C.3     1  UNL1        0.0000
     30 H           6.0303   -0.6091    8.1479 H       1  UNL1        0.0000
     31 H           6.3509    0.7985    7.1634 H       1  UNL1        0.0000
     32 H           6.2651    0.9488    8.9085 H       1  UNL1        0.0000
     33 C          11.8830    1.9174   11.2107 C.3     1  UNL1        0.0000
     34 H          12.9100    1.9521   10.8616 H       1  UNL1        0.0000
     35 H          11.9008    1.8409   12.2927 H       1  UNL1        0.0000
     36 H          11.4048    2.8589   10.9588 H       1  UNL1        0.0000
     37 C          10.3425   -0.6741   11.8418 C.3     1  UNL1        0.0000
     38 H          11.1977   -1.0441   12.3974 H       1  UNL1        0.0000
     39 H           9.7901   -1.5330   11.4792 H       1  UNL1        0.0000
     40 H           9.7037   -0.1404   12.5386 H       1  UNL1        0.0000
     41 C          12.1064   -0.4722    9.2719 C.3     1  UNL1        0.0000
     42 H          12.9271   -0.8818    9.8516 H       1  UNL1        0.0000
     43 H          12.5252    0.1773    8.5118 H       1  UNL1        0.0000
     44 H          11.6182   -1.2986    8.7695 H       1  UNL1        0.0000
@<TRIPOS>BOND
     1    23    21    1
     2    18    15    1
     3    22    21    1
     4    21    24    1
     5    21     3    1
     6     5     2    1
     7     7     6    1
     8    17    15    1
     9    15     2    1
    10    15    16    1
    11    31    29    1
    12    10     9    1
    13     8     6    1
    14     2     9    1
    15     2    11    1
    16     6     1    1
    17    27    25    1
    18    29    30    1
    19    29     3    1
    20    29    32    1
    21     9     1    1
    22     3    25    1
    23     3    19    1
    24    43    41    1
    25    44    41    1
    26    25    26    1
    27    25    28    1
    28     1    19    1
    29    14    11    1
    30    11    12    1
    31    11    13    1
    32    41    42    1
    33    41     4    1
    34    19    20    1
    35    19     4    1
    36     4    33    1
    37     4    37    1
    38    34    33    1
    39    36    33    1
    40    33    35    1
    41    39    37    1
    42    37    38    1
    43    37    40    1
