@<TRIPOS>MOLECULE
1,2
 15 14 0 0 0
SMALL
GASTEIGER

@<TRIPOS>ATOM
      1 P           7.2721    4.0581    0.4712 P.3     1  UNL1        0.0000
      2 C           6.3819    3.6806    1.8297 C.3     1  UNL1        0.0000
      3 SI          5.6617    2.1125    2.5355 Si      1  UNL1        0.0000
      4 C           4.5957    2.6770    4.0328 C.3     1  UNL1        0.0000
      5 H           4.9881    3.5999    4.4604 H       1  UNL1        0.0000
      6 H           4.5797    1.9279    4.8183 H       1  UNL1        0.0000
      7 H           3.5657    2.8599    3.7406 H       1  UNL1        0.0000
      8 C           7.0133    0.9046    3.1577 C.3     1  UNL1        0.0000
      9 H           7.6752    0.6217    2.3458 H       1  UNL1        0.0000
     10 H           6.5729   -0.0024    3.5603 H       1  UNL1        0.0000
     11 H           7.6245    1.3496    3.9369 H       1  UNL1        0.0000
     12 C           4.5443    1.1556    1.3099 C.3     1  UNL1        0.0000
     13 H           3.7609    1.7904    0.9072 H       1  UNL1        0.0000
     14 H           4.0688    0.3053    1.7891 H       1  UNL1        0.0000
     15 H           5.1259    0.7856    0.4721 H       1  UNL1        0.0000
@<TRIPOS>BOND
     1     1     2    1
     2    15    12    1
     3    13    12    1
     4    12    14    1
     5    12     3    1
     6     2     3    1
     7     9     8    1
     8     3     8    1
     9     3     4    1
    10     8    10    1
    11     8    11    1
    12     7     4    1
    13     4     5    1
    14     4     6    1
