@<TRIPOS>MOLECULE
1,2
 39 42 0 0 0
SMALL
GASTEIGER

@<TRIPOS>ATOM
      1 P           4.7092    0.0521    2.6501 P.3     1  UNL1       -0.0125
      2 C           4.6742    1.0584    0.0293 C.ar    1  UNL1       -0.0090
      3 C           4.5084    1.7382   -1.1589 C.ar    1  UNL1       -0.0534
      4 H           3.5089    1.9246   -1.5255 H       1  UNL1        0.0624
      5 C           5.5963    2.1632   -1.9347 C.ar    1  UNL1       -0.0606
      6 H           5.4069    2.7007   -2.8548 H       1  UNL1        0.0618
      7 C           6.8822    1.8822   -1.5594 C.ar    1  UNL1       -0.0540
      8 H           7.7213    2.1776   -2.1739 H       1  UNL1        0.0624
      9 C           7.1213    1.1886   -0.3570 C.ar    1  UNL1       -0.0167
     10 C           8.4143    0.8309    0.0789 C.ar    1  UNL1       -0.0540
     11 H           9.2607    1.0966   -0.5401 H       1  UNL1        0.0624
     12 C           8.6028    0.1549    1.2542 C.ar    1  UNL1       -0.0606
     13 H           9.5989   -0.1282    1.5650 H       1  UNL1        0.0618
     14 C           7.5158   -0.1544    2.0836 C.ar    1  UNL1       -0.0529
     15 H           7.6909   -0.6597    3.0222 H       1  UNL1        0.0624
     16 C           6.2461    0.1914    1.6915 C.ar    1  UNL1       -0.0064
     17 C           6.0103    0.8248    0.4474 C.ar    1  UNL1       -0.0020
     18 C           5.1527    1.1600    4.0483 C.ar    1  UNL1       -0.0147
     19 C           4.4913    1.0196    5.2674 C.ar    1  UNL1       -0.0535
     20 H           3.7822    0.2151    5.3966 H       1  UNL1        0.0624
     21 C           4.7546    1.8763    6.3192 C.ar    1  UNL1       -0.0611
     22 H           4.2348    1.7501    7.2585 H       1  UNL1        0.0618
     23 C           5.6863    2.8915    6.1726 C.ar    1  UNL1       -0.0617
     24 H           5.8909    3.5638    6.9928 H       1  UNL1        0.0618
     25 C           6.3644    3.0284    4.9735 C.ar    1  UNL1       -0.0611
     26 H           7.1069    3.8051    4.8577 H       1  UNL1        0.0618
     27 C           6.1021    2.1700    3.9202 C.ar    1  UNL1       -0.0535
     28 H           6.6615    2.2710    3.0004 H       1  UNL1        0.0624
     29 C           4.8665   -1.5306    3.5528 C.ar    1  UNL1       -0.0147
     30 C           3.9983   -2.5519    3.1878 C.ar    1  UNL1       -0.0535
     31 H           3.2768   -2.3388    2.4075 H       1  UNL1        0.0624
     32 C           4.0543   -3.7870    3.8053 C.ar    1  UNL1       -0.0611
     33 H           3.3723   -4.5740    3.5144 H       1  UNL1        0.0618
     34 C           4.9892   -4.0117    4.8026 C.ar    1  UNL1       -0.0617
     35 H           5.0410   -4.9744    5.2900 H       1  UNL1        0.0618
     36 C           5.8520   -2.9959    5.1820 C.ar    1  UNL1       -0.0611
     37 H           6.5744   -3.1690    5.9670 H       1  UNL1        0.0618
     38 C           5.7914   -1.7577    4.5678 C.ar    1  UNL1       -0.0535
     39 H           6.4499   -0.9645    4.8928 H       1  UNL1        0.0624
@<TRIPOS>BOND
     1     6     5    1
     2     8     7    1
     3     5     7   ar
     4     5     3   ar
     5     7     9   ar
     6     4     3    1
     7     3     2   ar
     8    11    10    1
     9     9    10   ar
    10     9    17   ar
    11     2    17   ar
    12    10    12   ar
    13    17    16   ar
    14    12    13    1
    15    12    14   ar
    16    16    14   ar
    17    16     1    1
    18    14    15    1
    19    31    30    1
    20     1    29    1
    21     1    18    1
    22    28    27    1
    23    30    29   ar
    24    30    32   ar
    25    33    32    1
    26    29    38   ar
    27    32    34   ar
    28    27    18   ar
    29    27    25   ar
    30    18    19   ar
    31    38    39    1
    32    38    36   ar
    33    34    36   ar
    34    34    35    1
    35    26    25    1
    36    25    23   ar
    37    36    37    1
    38    19    20    1
    39    19    21   ar
    40    23    21   ar
    41    23    24    1
    42    21    22    1
