@<TRIPOS>MOLECULE
1,2
 15 14 0 0 0
SMALL
GASTEIGER

@<TRIPOS>ATOM
      1 P          -0.8566    8.5607   14.9032 P.3     1  UNL1       -0.0092
      2 C          -0.7713    7.8289   16.3738 C.2     1  UNL1       -0.0259
      3 C          -1.4392    8.1320   17.6729 C.3     1  UNL1       -0.0112
      4 C          -1.0095    7.1287   18.7455 C.3     1  UNL1       -0.0560
      5 C          -1.0734    9.5549   18.1183 C.3     1  UNL1       -0.0560
      6 C          -2.9629    8.0768   17.4926 C.3     1  UNL1       -0.0560
      7 H          -1.5050    7.3446   19.6904 H       1  UNL1        0.0238
      8 H           0.0641    7.1774   18.8984 H       1  UNL1        0.0238
      9 H          -1.2666    6.1189   18.4415 H       1  UNL1        0.0238
     10 H          -1.5904    9.8064   19.0430 H       1  UNL1        0.0238
     11 H          -1.3619   10.2674   17.3478 H       1  UNL1        0.0238
     12 H          -0.0037    9.6429   18.2887 H       1  UNL1        0.0238
     13 H          -3.2667    8.7706   16.7109 H       1  UNL1        0.0238
     14 H          -3.4636    8.3490   18.4203 H       1  UNL1        0.0238
     15 H          -3.2829    7.0766   17.2116 H       1  UNL1        0.0238
@<TRIPOS>BOND
     1     1     2    2
     2     2     3    1
     3    13     6    1
     4    15     6    1
     5    11     5    1
     6     6     3    1
     7     6    14    1
     8     3     5    1
     9     3     4    1
    10     5    12    1
    11     5    10    1
    12     9     4    1
    13     4     8    1
    14     4     7    1
