@<TRIPOS>MOLECULE
1,38
 44 45 0 0 0
SMALL
GASTEIGER

@<TRIPOS>ATOM
      1 P           0.3682   -0.3928    5.1625 P.3     1  UNL1       -0.0866
      2 N           1.4087    2.1007    6.8800 N.3     1  UNL1       -0.2953
      3 C           2.9535    0.6624    8.1476 C.3     1  UNL1       -0.0059
      4 H           3.8817    1.1356    7.8174 H       1  UNL1        0.0332
      5 H           2.6998    1.0785    9.1258 H       1  UNL1        0.0332
      6 C           1.8542    0.8669    7.1450 C.3     1  UNL1        0.0602
      7 C           1.4109   -0.3421    6.6317 C.3     1  UNL1        0.0522
      8 C           2.1856   -1.4056    7.2779 C.ar    1  UNL1       -0.0306
      9 C           2.1688   -2.7946    7.1921 C.ar    1  UNL1       -0.0573
     10 H           1.5023   -3.3191    6.5305 H       1  UNL1        0.0621
     11 C           3.0258   -3.5476    7.9780 C.ar    1  UNL1       -0.0615
     12 H           2.9987   -4.6251    7.8967 H       1  UNL1        0.0618
     13 C           3.9097   -2.9529    8.8613 C.ar    1  UNL1       -0.0615
     14 H           4.5684   -3.5596    9.4643 H       1  UNL1        0.0618
     15 C           3.9396   -1.5701    8.9672 C.ar    1  UNL1       -0.0582
     16 H           4.6203   -1.0843    9.6522 H       1  UNL1        0.0620
     17 C           3.0866   -0.8228    8.1880 C.ar    1  UNL1       -0.0414
     18 C           1.1634   -1.7606    4.1649 C.3     1  UNL1       -0.0250
     19 H           1.1291   -2.6728    4.7614 H       1  UNL1        0.0344
     20 C           2.6258   -1.4217    3.9027 C.3     1  UNL1       -0.0587
     21 H           3.1846   -1.3877    4.8348 H       1  UNL1        0.0236
     22 H           2.7093   -0.4495    3.4217 H       1  UNL1        0.0236
     23 H           3.0758   -2.1750    3.2577 H       1  UNL1        0.0236
     24 C           0.4076   -2.0112    2.8654 C.3     1  UNL1       -0.0587
     25 H          -0.6192   -2.3182    3.0579 H       1  UNL1        0.0236
     26 H           0.8966   -2.7988    2.2934 H       1  UNL1        0.0236
     27 H           0.3958   -1.1061    2.2606 H       1  UNL1        0.0236
     28 C          -1.2472   -1.2319    5.6852 C.3     1  UNL1       -0.0250
     29 H          -1.8444   -1.2669    4.7665 H       1  UNL1        0.0344
     30 C          -1.1251   -2.6477    6.2394 C.3     1  UNL1       -0.0587
     31 H          -0.7139   -3.3428    5.5128 H       1  UNL1        0.0236
     32 H          -2.1182   -3.0090    6.5090 H       1  UNL1        0.0236
     33 H          -0.5119   -2.6519    7.1364 H       1  UNL1        0.0236
     34 C          -1.9802   -0.3782    6.7138 C.3     1  UNL1       -0.0587
     35 H          -2.2036    0.6093    6.3209 H       1  UNL1        0.0236
     36 H          -1.3728   -0.2727    7.6125 H       1  UNL1        0.0236
     37 H          -2.9225   -0.8504    6.9933 H       1  UNL1        0.0236
     38 C           0.2292    2.2959    6.0976 C.3     1  UNL1        0.0120
     39 H           0.0351    3.3734    6.0969 H       1  UNL1        0.0439
     40 H          -0.5926    1.8133    6.6499 H       1  UNL1        0.0439
     41 C           2.0726    3.2320    7.4809 C.3     1  UNL1       -0.0121
     42 H           1.6597    4.1518    7.0768 H       1  UNL1        0.0391
     43 H           3.1408    3.2182    7.2614 H       1  UNL1        0.0391
     44 H           1.9361    3.2376    8.5681 H       1  UNL1        0.0391
@<TRIPOS>BOND
     1    27    24    1
     2    26    24    1
     3    24    25    1
     4    24    18    1
     5    23    20    1
     6    22    20    1
     7    20    18    1
     8    20    21    1
     9    18    19    1
    10    18     1    1
    11    29    28    1
    12     1    28    1
    13     1     7    1
    14    31    30    1
    15    28    30    1
    16    28    34    1
    17    39    38    1
    18    38    40    1
    19    38     2    1
    20    30    32    1
    21    30    33    1
    22    35    34    1
    23    10     9    1
    24     7     6    1
    25     7     8    1
    26    34    37    1
    27    34    36    1
    28     2     6    1
    29     2    41    1
    30    42    41    1
    31     6     3    1
    32     9     8   ar
    33     9    11   ar
    34    43    41    1
    35     8    17   ar
    36    41    44    1
    37     4     3    1
    38    12    11    1
    39    11    13   ar
    40     3    17    1
    41     3     5    1
    42    17    15   ar
    43    13    15   ar
    44    13    14    1
    45    15    16    1
