@<TRIPOS>MOLECULE
1,18
 44 45 0 0 0
SMALL
GASTEIGER

@<TRIPOS>ATOM
      1 P           3.7917    3.3876    3.7728 P.3     1  UNL1       -0.0672
      2 N           4.6254    6.0563    2.2112 N.pl3   1  UNL1       -0.3339
      3 C           6.3141    4.8362    0.8994 C.3     1  UNL1        0.0118
      4 H           6.0289    5.2711   -0.0617 H       1  UNL1        0.0374
      5 H           7.1891    5.3821    1.2610 H       1  UNL1        0.0374
      6 C           5.1882    4.8859    1.8919 C.2     1  UNL1        0.0189
      7 C           4.8561    3.6148    2.3381 C.2     1  UNL1        0.0016
      8 C           5.7409    2.6630    1.6576 C.ar    1  UNL1       -0.0124
      9 C           5.8592    1.2764    1.6744 C.ar    1  UNL1       -0.0537
     10 H           5.2358    0.6546    2.2922 H       1  UNL1        0.0624
     11 C           6.7985    0.6509    0.8709 C.ar    1  UNL1       -0.0612
     12 H           6.8755   -0.4268    0.8991 H       1  UNL1        0.0618
     13 C           7.6340    1.3722    0.0363 C.ar    1  UNL1       -0.0615
     14 H           8.3588    0.8635   -0.5811 H       1  UNL1        0.0618
     15 C           7.5281    2.7546   -0.0030 C.ar    1  UNL1       -0.0576
     16 H           8.1670    3.3384   -0.6504 H       1  UNL1        0.0621
     17 C           6.5933    3.3749    0.7938 C.ar    1  UNL1       -0.0340
     18 C           3.4148    6.1001    2.9660 C.3     1  UNL1        0.0273
     19 H           2.6562    5.5625    2.3757 H       1  UNL1        0.0479
     20 H           3.1182    7.1514    3.0144 H       1  UNL1        0.0479
     21 C           5.1656    7.2758    1.6570 C.3     1  UNL1        0.0005
     22 H           6.2432    7.3307    1.8120 H       1  UNL1        0.0428
     23 H           4.7190    8.1314    2.1554 H       1  UNL1        0.0428
     24 H           4.9617    7.3440    0.5826 H       1  UNL1        0.0428
     25 C           4.7054    2.0652    4.7297 C.3     1  UNL1       -0.0219
     26 H           4.8220    1.2106    4.0628 H       1  UNL1        0.0346
     27 C           6.1006    2.5559    5.0982 C.3     1  UNL1       -0.0584
     28 H           6.6548    1.7627    5.5978 H       1  UNL1        0.0236
     29 H           6.0475    3.4146    5.7623 H       1  UNL1        0.0236
     30 H           6.6489    2.8496    4.2060 H       1  UNL1        0.0236
     31 C           3.9302    1.6095    5.9602 C.3     1  UNL1       -0.0584
     32 H           4.5177    0.8853    6.5229 H       1  UNL1        0.0236
     33 H           2.9861    1.1426    5.6853 H       1  UNL1        0.0236
     34 H           3.7234    2.4583    6.6101 H       1  UNL1        0.0236
     35 C           2.2843    2.4098    3.1804 C.3     1  UNL1       -0.0219
     36 H           1.6772    2.2750    4.0831 H       1  UNL1        0.0346
     37 C           2.5638    1.0393    2.5722 C.3     1  UNL1       -0.0584
     38 H           1.6168    0.5834    2.2808 H       1  UNL1        0.0236
     39 H           3.0466    0.3639    3.2727 H       1  UNL1        0.0236
     40 H           3.1759    1.1388    1.6800 H       1  UNL1        0.0236
     41 C           1.4895    3.2286    2.1701 C.3     1  UNL1       -0.0584
     42 H           0.6100    2.6736    1.8428 H       1  UNL1        0.0236
     43 H           2.1034    3.4402    1.2949 H       1  UNL1        0.0236
     44 H           1.1534    4.1655    2.6021 H       1  UNL1        0.0236
@<TRIPOS>BOND
     1    16    15    1
     2    14    13    1
     3     4     3    1
     4    15    13   ar
     5    15    17   ar
     6    13    11   ar
     7    24    21    1
     8    17     3    1
     9    17     8   ar
    10    11    12    1
    11    11     9   ar
    12     3     5    1
    13     3     6    1
    14    43    41    1
    15    21    22    1
    16    21    23    1
    17    21     2    1
    18     8     9   ar
    19     8     7    1
    20     9    10    1
    21    40    37    1
    22    42    41    1
    23     6     2    1
    24     6     7    2
    25    41    44    1
    26    41    35    1
    27     2    18    1
    28    38    37    1
    29     7     1    1
    30    19    18    1
    31    37    35    1
    32    37    39    1
    33    18    20    1
    34    35     1    1
    35    35    36    1
    36     1    25    1
    37    26    25    1
    38    30    27    1
    39    25    27    1
    40    25    31    1
    41    27    28    1
    42    27    29    1
    43    33    31    1
    44    31    32    1
    45    31    34    1
