@<TRIPOS>MOLECULE
1,38
 44 45 0 0 0
SMALL
GASTEIGER

@<TRIPOS>ATOM
      1 P           0.3856    5.8105    2.4554 P.3     1  UNL1       -0.0672
      2 N          -2.6400    4.7852    2.4383 N.pl3   1  UNL1       -0.3339
      3 C          -3.4643    6.9873    3.2234 C.3     1  UNL1        0.0118
      4 H          -4.2628    7.0492    2.4801 H       1  UNL1        0.0374
      5 H          -3.9106    6.6704    4.1691 H       1  UNL1        0.0374
      6 C          -2.3724    6.0483    2.7934 C.2     1  UNL1        0.0189
      7 C          -1.1499    6.6929    2.7635 C.2     1  UNL1        0.0016
      8 C          -1.3751    8.0966    3.0802 C.ar    1  UNL1       -0.0124
      9 C          -0.5380    9.2069    3.0788 C.ar    1  UNL1       -0.0537
     10 H           0.5045    9.1232    2.8183 H       1  UNL1        0.0624
     11 C          -1.0531   10.4511    3.4022 C.ar    1  UNL1       -0.0612
     12 H          -0.3972   11.3104    3.4007 H       1  UNL1        0.0618
     13 C          -2.3903   10.6145    3.7231 C.ar    1  UNL1       -0.0615
     14 H          -2.7698   11.5928    3.9777 H       1  UNL1        0.0618
     15 C          -3.2459    9.5208    3.6982 C.ar    1  UNL1       -0.0576
     16 H          -4.2959    9.6397    3.9253 H       1  UNL1        0.0621
     17 C          -2.7388    8.2858    3.3675 C.ar    1  UNL1       -0.0340
     18 C           0.7998    6.3715    0.6697 C.3     1  UNL1       -0.0219
     19 H           0.9861    5.4337    0.1349 H       1  UNL1        0.0346
     20 C          -0.3869    7.0626   -0.0021 C.3     1  UNL1       -0.0584
     21 H          -0.1552    7.2397   -1.0526 H       1  UNL1        0.0236
     22 H          -0.5910    8.0207    0.4698 H       1  UNL1        0.0236
     23 H          -1.2929    6.4643    0.0488 H       1  UNL1        0.0236
     24 C           2.0252    7.2662    0.4982 C.3     1  UNL1       -0.0584
     25 H           2.2240    7.3933   -0.5667 H       1  UNL1        0.0236
     26 H           2.9178    6.8483    0.9538 H       1  UNL1        0.0236
     27 H           1.8475    8.2542    0.9157 H       1  UNL1        0.0236
     28 C           1.6528    6.6986    3.5208 C.3     1  UNL1       -0.0219
     29 H           1.8530    7.6718    3.0672 H       1  UNL1        0.0346
     30 C           1.1286    6.9050    4.9371 C.3     1  UNL1       -0.0584
     31 H           1.8728    7.4353    5.5306 H       1  UNL1        0.0236
     32 H           0.9432    5.9403    5.4060 H       1  UNL1        0.0236
     33 H           0.2102    7.4852    4.9446 H       1  UNL1        0.0236
     34 C           2.9595    5.9153    3.5888 C.3     1  UNL1       -0.0584
     35 H           3.6687    6.4315    4.2351 H       1  UNL1        0.0236
     36 H           3.4169    5.7961    2.6109 H       1  UNL1        0.0236
     37 H           2.7701    4.9267    4.0053 H       1  UNL1        0.0236
     38 C          -1.6429    3.9936    1.7897 C.3     1  UNL1        0.0273
     39 H          -1.3647    4.5150    0.8554 H       1  UNL1        0.0479
     40 H          -2.1262    3.0558    1.5022 H       1  UNL1        0.0479
     41 C          -3.9830    4.2745    2.5640 C.3     1  UNL1        0.0005
     42 H          -4.4141    4.5504    3.5253 H       1  UNL1        0.0428
     43 H          -3.9626    3.1896    2.5061 H       1  UNL1        0.0428
     44 H          -4.6276    4.6577    1.7635 H       1  UNL1        0.0428
@<TRIPOS>BOND
     1    21    20    1
     2    25    24    1
     3    20    23    1
     4    20    22    1
     5    20    18    1
     6    19    18    1
     7    24    18    1
     8    24    27    1
     9    24    26    1
    10    18     1    1
    11    39    38    1
    12    40    38    1
    13    44    41    1
    14    38     2    1
    15     2    41    1
    16     2     6    1
    17     1     7    1
    18     1    28    1
    19     4     3    1
    20    43    41    1
    21    41    42    1
    22    36    34    1
    23     7     6    2
    24     7     8    1
    25     6     3    1
    26    10     9    1
    27    29    28    1
    28     9     8   ar
    29     9    11   ar
    30     8    17   ar
    31     3    17    1
    32     3     5    1
    33    17    15   ar
    34    12    11    1
    35    11    13   ar
    36    28    34    1
    37    28    30    1
    38    34    37    1
    39    34    35    1
    40    15    13   ar
    41    15    16    1
    42    13    14    1
    43    30    33    1
    44    30    32    1
    45    30    31    1
