@<TRIPOS>MOLECULE
1,2
 44 44 0 0 0
SMALL
GASTEIGER

@<TRIPOS>ATOM
      1 P           1.6243    7.0725   11.7909 P.3     1  UNL1       -0.0040
      2 C           1.3312    4.6806   12.1476 C.3     1  UNL1        0.1904
      3 N           0.5056    5.7747   12.1373 N.pl3   1  UNL1       -0.2847
      4 C          -0.7813    5.3866   12.4282 C.2     1  UNL1        0.0117
      5 H          -1.6132    6.0609   12.4710 H       1  UNL1        0.0796
      6 C          -0.7414    4.0468   12.6155 C.2     1  UNL1        0.0084
      7 H          -1.5325    3.3680   12.8591 H       1  UNL1        0.0793
      8 N           0.5614    3.6310   12.4399 N.pl3   1  UNL1       -0.3049
      9 C           1.0514    2.2692   12.5433 C.3     1  UNL1        0.0196
     10 H           2.1241    2.3321   12.3207 H       1  UNL1        0.0495
     11 C           0.3621    1.3816   11.5110 C.3     1  UNL1       -0.0467
     12 H          -0.6999    1.2804   11.7260 H       1  UNL1        0.0247
     13 H           0.8111    0.3930   11.5230 H       1  UNL1        0.0247
     14 H           0.4812    1.8020   10.5149 H       1  UNL1        0.0247
     15 C           0.8676    1.7506   13.9665 C.3     1  UNL1       -0.0467
     16 H           1.3854    2.4020   14.6664 H       1  UNL1        0.0247
     17 H           1.2933    0.7552   14.0496 H       1  UNL1        0.0247
     18 H          -0.1860    1.7023   14.2359 H       1  UNL1        0.0247
     19 C           0.8325    8.0218   10.3717 C.3     1  UNL1       -0.0006
     20 C          -0.3596    8.8951   10.7407 C.3     1  UNL1       -0.0547
     21 H          -0.8159    9.2787    9.8286 H       1  UNL1        0.0239
     22 H          -0.0569    9.7487   11.3417 H       1  UNL1        0.0239
     23 H          -1.1139    8.3256   11.2797 H       1  UNL1        0.0239
     24 C           1.9754    8.8443    9.7739 C.3     1  UNL1       -0.0547
     25 H           2.8558    8.2106    9.6462 H       1  UNL1        0.0239
     26 H           2.2460    9.6808   10.4133 H       1  UNL1        0.0239
     27 H           1.6884    9.2393    8.8009 H       1  UNL1        0.0239
     28 C           0.4147    6.9519    9.3632 C.3     1  UNL1       -0.0547
     29 H           0.1301    7.4186    8.4220 H       1  UNL1        0.0239
     30 H          -0.4309    6.3697    9.7263 H       1  UNL1        0.0239
     31 H           1.2540    6.2794    9.1754 H       1  UNL1        0.0239
     32 C           1.6602    8.0008   13.4294 C.3     1  UNL1       -0.0006
     33 C           2.5623    9.2165   13.2236 C.3     1  UNL1       -0.0547
     34 H           2.0614    9.9911   12.6460 H       1  UNL1        0.0239
     35 H           3.4754    8.9176   12.7033 H       1  UNL1        0.0239
     36 H           2.8439    9.6425   14.1856 H       1  UNL1        0.0239
     37 C           2.3486    7.0221   14.3898 C.3     1  UNL1       -0.0547
     38 H           2.5260    7.5034   15.3509 H       1  UNL1        0.0239
     39 H           3.3250    6.7078   13.9967 H       1  UNL1        0.0239
     40 H           1.7340    6.1360   14.5662 H       1  UNL1        0.0239
     41 C           0.2986    8.3849   14.0021 C.3     1  UNL1       -0.0547
     42 H           0.4391    8.7781   15.0086 H       1  UNL1        0.0239
     43 H          -0.3550    7.5173   14.0725 H       1  UNL1        0.0239
     44 H          -0.1948    9.1516   13.4136 H       1  UNL1        0.0239
@<TRIPOS>BOND
     1    29    28    1
     2    27    24    1
     3    31    28    1
     4    28    30    1
     5    28    19    1
     6    25    24    1
     7    24    19    1
     8    24    26    1
     9    21    20    1
    10    19    20    1
    11    19     1    1
    12    14    11    1
    13    20    23    1
    14    20    22    1
    15    11    13    1
    16    11    12    1
    17    11     9    1
    18     1     3    1
    19     1    32    1
    20     3     2    1
    21     3     4    1
    22     2     8    1
    23    10     9    1
    24     4     5    1
    25     4     6    2
    26     8     9    1
    27     8     6    1
    28     9    15    1
    29     6     7    1
    30    34    33    1
    31    35    33    1
    32    33    32    1
    33    33    36    1
    34    44    41    1
    35    32    41    1
    36    32    37    1
    37    15    17    1
    38    15    18    1
    39    15    16    1
    40    39    37    1
    41    41    43    1
    42    41    42    1
    43    37    40    1
    44    37    38    1
