@<TRIPOS>MOLECULE
1,2,4
 70 73 0 0 0
SMALL
GASTEIGER

@<TRIPOS>ATOM
      1 S          14.0901   10.9083   21.3252 S.3     1  UNL1        0.0000
      2 S          15.6688    9.0864   17.4577 S.3     1  UNL1        0.0000
      3 S          11.8982    9.9717   18.8625 S.3     1  UNL1        0.0000
      4 P          13.9581    8.5658   19.4673 P.3     1  UNL1        0.0000
      5 SI         13.3536   10.8192   24.4480 Si      1  UNL1        0.0000
      6 SI         18.6440    7.9151   17.0044 Si      1  UNL1        0.0000
      7 SI          9.3399    9.1835   16.7790 Si      1  UNL1        0.0000
      8 C          13.2698    8.3398   21.1175 C.ar    1  UNL1        0.0000
      9 C          13.4376    9.4344   21.9744 C.ar    1  UNL1        0.0000
     10 C          13.0171    9.3528   23.3069 C.ar    1  UNL1        0.0000
     11 C          12.4106    8.1737   23.7236 C.ar    1  UNL1        0.0000
     12 H          12.0840    8.0935   24.7508 H       1  UNL1        0.0000
     13 C          12.2063    7.1046   22.8657 C.ar    1  UNL1        0.0000
     14 H          11.7158    6.2081   23.2207 H       1  UNL1        0.0000
     15 C          12.6432    7.1833   21.5536 C.ar    1  UNL1        0.0000
     16 H          12.4976    6.3634   20.8610 H       1  UNL1        0.0000
     17 C          12.3817   12.3767   23.9242 C.3     1  UNL1        0.0000
     18 H          12.5914   13.2187   24.5781 H       1  UNL1        0.0000
     19 H          11.3104   12.1982   23.9431 H       1  UNL1        0.0000
     20 H          12.6525   12.6548   22.9122 H       1  UNL1        0.0000
     21 C          15.2312   11.1472   24.5631 C.3     1  UNL1        0.0000
     22 H          15.6598   11.1933   23.5668 H       1  UNL1        0.0000
     23 H          15.7401   10.3556   25.1065 H       1  UNL1        0.0000
     24 H          15.4464   12.0865   25.0644 H       1  UNL1        0.0000
     25 C          12.7554   10.3701   26.2141 C.3     1  UNL1        0.0000
     26 H          13.2581    9.4891   26.5991 H       1  UNL1        0.0000
     27 H          11.6872   10.1827   26.2409 H       1  UNL1        0.0000
     28 H          12.9595   11.1867   26.8986 H       1  UNL1        0.0000
     29 C          15.3732    7.3790   19.4682 C.ar    1  UNL1        0.0000
     30 C          16.2379    7.7373   18.4287 C.ar    1  UNL1        0.0000
     31 C          17.4552    7.1053   18.2254 C.ar    1  UNL1        0.0000
     32 C          17.7646    6.0469   19.0808 C.ar    1  UNL1        0.0000
     33 H          18.7091    5.5358   18.9560 H       1  UNL1        0.0000
     34 C          16.9080    5.6568   20.0927 C.ar    1  UNL1        0.0000
     35 H          17.1809    4.8375   20.7452 H       1  UNL1        0.0000
     36 C          15.7136    6.3375   20.3087 C.ar    1  UNL1        0.0000
     37 H          15.0677    6.0678   21.1343 H       1  UNL1        0.0000
     38 C          20.3322    7.0146   17.0926 C.3     1  UNL1        0.0000
     39 H          20.7628    7.0635   18.0871 H       1  UNL1        0.0000
     40 H          21.0376    7.4704   16.4057 H       1  UNL1        0.0000
     41 H          20.2412    5.9687   16.8192 H       1  UNL1        0.0000
     42 C          18.9015    9.7384   17.5140 C.3     1  UNL1        0.0000
     43 H          19.9408    9.9726   17.7294 H       1  UNL1        0.0000
     44 H          18.3155    9.9526   18.4095 H       1  UNL1        0.0000
     45 H          18.5563   10.4139   16.7360 H       1  UNL1        0.0000
     46 C          18.0092    7.7575   15.2070 C.3     1  UNL1        0.0000
     47 H          18.6710    8.2597   14.5071 H       1  UNL1        0.0000
     48 H          17.0233    8.2026   15.1222 H       1  UNL1        0.0000
     49 H          17.9327    6.7177   14.9021 H       1  UNL1        0.0000
     50 C          12.9099    7.6633   18.3023 C.ar    1  UNL1        0.0000
     51 C          11.8037    8.4818   18.0205 C.ar    1  UNL1        0.0000
     52 C          10.8018    8.0500   17.1442 C.ar    1  UNL1        0.0000
     53 C          10.9706    6.7902   16.5798 C.ar    1  UNL1        0.0000
     54 H          10.2153    6.4245   15.8969 H       1  UNL1        0.0000
     55 C          12.0692    5.9869   16.8503 C.ar    1  UNL1        0.0000
     56 H          12.1554    5.0167   16.3793 H       1  UNL1        0.0000
     57 C          13.0626    6.4223   17.7166 C.ar    1  UNL1        0.0000
     58 H          13.9317    5.8124   17.9259 H       1  UNL1        0.0000
     59 C           9.9342   10.8112   15.9775 C.3     1  UNL1        0.0000
     60 H          10.6499   11.2930   16.6347 H       1  UNL1        0.0000
     61 H           9.1143   11.5035   15.8071 H       1  UNL1        0.0000
     62 H          10.4256   10.6320   15.0252 H       1  UNL1        0.0000
     63 C           8.3607    9.5510   18.3759 C.3     1  UNL1        0.0000
     64 H           7.9305    8.6473   18.7985 H       1  UNL1        0.0000
     65 H           7.5529   10.2563   18.2021 H       1  UNL1        0.0000
     66 H           9.0274    9.9784   19.1171 H       1  UNL1        0.0000
     67 C           8.1540    8.3235   15.5452 C.3     1  UNL1        0.0000
     68 H           8.6509    8.0866   14.6100 H       1  UNL1        0.0000
     69 H           7.3133    8.9698   15.3143 H       1  UNL1        0.0000
     70 H           7.7543    7.4006   15.9529 H       1  UNL1        0.0000
@<TRIPOS>BOND
     1    47    46    1
     2    68    67    1
     3    49    46    1
     4    62    59    1
     5    48    46    1
     6    46     6    1
     7    69    67    1
     8    67    70    1
     9    67     7    1
    10    61    59    1
    11    54    53    1
    12    59    60    1
    13    59     7    1
    14    56    55    1
    15    40    38    1
    16    53    55   ar
    17    53    52   ar
    18    45    42    1
    19     7    52    1
    20     7    63    1
    21    41    38    1
    22    55    57   ar
    23     6    38    1
    24     6    42    1
    25     6    31    1
    26    38    39    1
    27    52    51   ar
    28     2    30    1
    29    42    43    1
    30    42    44    1
    31    57    58    1
    32    57    50   ar
    33    51    50   ar
    34    51     3    1
    35    65    63    1
    36    31    30   ar
    37    31    32   ar
    38    50     4    1
    39    63    64    1
    40    63    66    1
    41    30    29   ar
    42     3     4    1
    43    33    32    1
    44    32    34   ar
    45     4    29    1
    46     4     8    1
    47    29    36   ar
    48    34    36   ar
    49    34    35    1
    50    36    37    1
    51    16    15    1
    52     8    15   ar
    53     8     9   ar
    54     1     9    1
    55    15    13   ar
    56     9    10   ar
    57    13    14    1
    58    13    11   ar
    59    20    17    1
    60    10    11   ar
    61    10     5    1
    62    22    21    1
    63    11    12    1
    64    17    19    1
    65    17     5    1
    66    17    18    1
    67     5    21    1
    68     5    25    1
    69    21    24    1
    70    21    23    1
    71    25    27    1
    72    25    26    1
    73    25    28    1
