@<TRIPOS>MOLECULE
1,2
 46 48 0 0 0
SMALL
GASTEIGER

@<TRIPOS>ATOM
      1 SI          1.9568    4.4537    1.0627 Si      1  UNL1        0.0000
      2 SI          2.1243    2.3751    3.9980 Si      1  UNL1        0.0000
      3 O           3.7348    2.3731    1.6976 O.3     1  UNL1        0.0000
      4 C           1.7361    1.6980    5.7974 C.3     1  UNL1        0.0000
      5 H           2.6692    1.3841    6.2563 H       1  UNL1        0.0000
      6 H           1.0665    0.8453    5.8180 H       1  UNL1        0.0000
      7 H           1.3213    2.4687    6.4394 H       1  UNL1        0.0000
      8 C           3.5270    3.5873    4.5754 C.3     1  UNL1        0.0000
      9 H           3.9293    3.2622    5.5293 H       1  UNL1        0.0000
     10 H           3.1932    4.6116    4.6909 H       1  UNL1        0.0000
     11 H           4.3390    3.5885    3.8621 H       1  UNL1        0.0000
     12 C           1.3895    5.8984   -0.1368 C.3     1  UNL1        0.0000
     13 H           0.9557    6.7307    0.4082 H       1  UNL1        0.0000
     14 H           0.6842    5.5918   -0.9013 H       1  UNL1        0.0000
     15 H           2.2660    6.2872   -0.6471 H       1  UNL1        0.0000
     16 C           3.3643    5.4840    1.9145 C.3     1  UNL1        0.0000
     17 H           4.2192    4.8556    2.1192 H       1  UNL1        0.0000
     18 H           3.0605    5.9377    2.8508 H       1  UNL1        0.0000
     19 H           3.6926    6.2796    1.2537 H       1  UNL1        0.0000
     20 C           3.2122    0.8927    3.4039 C.ar    1  UNL1        0.0000
     21 C           3.3556   -0.3609    3.9767 C.ar    1  UNL1        0.0000
     22 H           2.8552   -0.5908    4.9058 H       1  UNL1        0.0000
     23 C           4.1327   -1.3350    3.3718 C.ar    1  UNL1        0.0000
     24 H           4.2249   -2.3109    3.8282 H       1  UNL1        0.0000
     25 C           4.7976   -1.0728    2.1870 C.ar    1  UNL1        0.0000
     26 H           5.3946   -1.8516    1.7390 H       1  UNL1        0.0000
     27 C           4.7062    0.1772    1.5911 C.ar    1  UNL1        0.0000
     28 C           3.9111    1.1265    2.2251 C.ar    1  UNL1        0.0000
     29 C           3.0140    3.4644   -0.2168 C.ar    1  UNL1        0.0000
     30 C           3.0533    3.5992   -1.5955 C.ar    1  UNL1        0.0000
     31 H           2.4761    4.3733   -2.0794 H       1  UNL1        0.0000
     32 C           3.8230    2.7490   -2.3719 C.ar    1  UNL1        0.0000
     33 H           3.8336    2.8628   -3.4472 H       1  UNL1        0.0000
     34 C           4.5836    1.7525   -1.7861 C.ar    1  UNL1        0.0000
     35 H           5.1716    1.1044   -2.4169 H       1  UNL1        0.0000
     36 C           4.5983    1.5979   -0.4071 C.ar    1  UNL1        0.0000
     37 C           3.8082    2.4674    0.3380 C.ar    1  UNL1        0.0000
     38 C           5.4640    0.6018    0.3450 C.3     1  UNL1        0.0000
     39 C           5.8704   -0.5889   -0.5234 C.3     1  UNL1        0.0000
     40 H           4.9920   -1.1337   -0.8630 H       1  UNL1        0.0000
     41 H           6.5122   -1.2646    0.0362 H       1  UNL1        0.0000
     42 H           6.4349   -0.2516   -1.3890 H       1  UNL1        0.0000
     43 C           6.7351    1.3449    0.8047 C.3     1  UNL1        0.0000
     44 H           7.2930    1.7042   -0.0583 H       1  UNL1        0.0000
     45 H           7.3703    0.6785    1.3857 H       1  UNL1        0.0000
     46 H           6.4731    2.1992    1.4256 H       1  UNL1        0.0000
@<TRIPOS>BOND
     1    33    32    1
     2    35    34    1
     3    32    34   ar
     4    32    30   ar
     5    31    30    1
     6    34    36   ar
     7    30    29   ar
     8    42    39    1
     9    14    12    1
    10    40    39    1
    11    15    12    1
    12    39    41    1
    13    39    38    1
    14    36    37   ar
    15    36    38    1
    16    29    37   ar
    17    29     1    1
    18    12    13    1
    19    12     1    1
    20    44    43    1
    21    37     3    1
    22    38    43    1
    23    38    27    1
    24    43    45    1
    25    43    46    1
    26     1    16    1
    27    19    16    1
    28    27    25   ar
    29    27    28   ar
    30     3    28    1
    31    26    25    1
    32    16    17    1
    33    16    18    1
    34    25    23   ar
    35    28    20   ar
    36    23    24    1
    37    23    21   ar
    38    20    21   ar
    39    20     2    1
    40    11     8    1
    41    21    22    1
    42     2     8    1
    43     2     4    1
    44     8    10    1
    45     8     9    1
    46     4     6    1
    47     4     5    1
    48     4     7    1
