@<TRIPOS>MOLECULE
1,2
 46 48 0 0 0
SMALL
GASTEIGER

@<TRIPOS>ATOM
      1 SI          0.6177    4.8115    7.5184 Si      1  UNL1        0.0000
      2 SI          3.3800    2.5642    8.4911 Si      1  UNL1        0.0000
      3 O           3.4091    5.1715    7.3369 O.3     1  UNL1        0.0000
      4 C           0.7860    4.0968    5.7354 C.3     1  UNL1        0.0000
      5 H           0.5363    3.0426    5.6866 H       1  UNL1        0.0000
      6 H           1.7914    4.2211    5.3545 H       1  UNL1        0.0000
      7 H           0.1133    4.6273    5.0683 H       1  UNL1        0.0000
      8 C          -1.2668    5.2612    7.5426 C.3     1  UNL1        0.0000
      9 H          -1.5473    5.7608    6.6205 H       1  UNL1        0.0000
     10 H          -1.5366    5.9170    8.3640 H       1  UNL1        0.0000
     11 H          -1.8764    4.3655    7.6237 H       1  UNL1        0.0000
     12 C           3.3715    2.0804    6.6123 C.3     1  UNL1        0.0000
     13 H           4.2426    1.4738    6.3826 H       1  UNL1        0.0000
     14 H           3.4078    2.9566    5.9784 H       1  UNL1        0.0000
     15 H           2.4912    1.5074    6.3388 H       1  UNL1        0.0000
     16 C           4.2193    0.9278    9.1371 C.3     1  UNL1        0.0000
     17 H           3.5673    0.0744    8.9847 H       1  UNL1        0.0000
     18 H           4.4971    0.9508   10.1840 H       1  UNL1        0.0000
     19 H           5.1246    0.7452    8.5663 H       1  UNL1        0.0000
     20 C           1.5069    6.5031    7.4208 C.ar    1  UNL1        0.0000
     21 C           0.9278    7.7607    7.4545 C.ar    1  UNL1        0.0000
     22 H          -0.1456    7.8513    7.5145 H       1  UNL1        0.0000
     23 C           1.7179    8.8973    7.4282 C.ar    1  UNL1        0.0000
     24 H           1.2575    9.8743    7.4631 H       1  UNL1        0.0000
     25 C           3.0975    8.7988    7.3598 C.ar    1  UNL1        0.0000
     26 H           3.6848    9.7032    7.3445 H       1  UNL1        0.0000
     27 C           3.7177    7.5580    7.3076 C.ar    1  UNL1        0.0000
     28 C           5.2123    7.3333    7.1567 C.3     1  UNL1        0.0000
     29 C           5.5671    6.0648    7.9146 C.ar    1  UNL1        0.0000
     30 C           6.7758    5.8394    8.5588 C.ar    1  UNL1        0.0000
     31 H           7.5290    6.6105    8.5927 H       1  UNL1        0.0000
     32 C           7.0368    4.6199    9.1592 C.ar    1  UNL1        0.0000
     33 H           7.9887    4.4604    9.6459 H       1  UNL1        0.0000
     34 C           6.0925    3.6082    9.1409 C.ar    1  UNL1        0.0000
     35 H           6.3111    2.6644    9.6144 H       1  UNL1        0.0000
     36 C           4.8632    3.7965    8.5311 C.ar    1  UNL1        0.0000
     37 C           4.6421    5.0258    7.9178 C.ar    1  UNL1        0.0000
     38 C           2.8944    6.4379    7.3383 C.ar    1  UNL1        0.0000
     39 C           5.4964    7.0777    5.6624 C.3     1  UNL1        0.0000
     40 H           4.9249    6.2235    5.3053 H       1  UNL1        0.0000
     41 H           6.5545    6.8714    5.5123 H       1  UNL1        0.0000
     42 H           5.2181    7.9496    5.0733 H       1  UNL1        0.0000
     43 C           6.0307    8.5380    7.6203 C.3     1  UNL1        0.0000
     44 H           5.7697    9.4186    7.0390 H       1  UNL1        0.0000
     45 H           7.0916    8.3558    7.4695 H       1  UNL1        0.0000
     46 H           5.8518    8.7422    8.6738 H       1  UNL1        0.0000
@<TRIPOS>BOND
     1     7     4    1
     2    42    39    1
     3    40    39    1
     4     6     4    1
     5    41    39    1
     6    39    28    1
     7     5     4    1
     8     4     1    1
     9    14    12    1
    10    15    12    1
    11    13    12    1
    12    12     2    1
    13     9     8    1
    14    44    43    1
    15    28    27    1
    16    28    43    1
    17    28    29    1
    18    27    38   ar
    19    27    25   ar
    20     3    38    1
    21     3    37    1
    22    38    20   ar
    23    26    25    1
    24    25    23   ar
    25    20    21   ar
    26    20     1    1
    27    23    21   ar
    28    23    24    1
    29    21    22    1
    30    45    43    1
    31     1     8    1
    32     8    11    1
    33     8    10    1
    34    43    46    1
    35    29    37   ar
    36    29    30   ar
    37    37    36   ar
    38     2    36    1
    39     2    16    1
    40    36    34   ar
    41    30    31    1
    42    30    32   ar
    43    19    16    1
    44    17    16    1
    45    16    18    1
    46    34    32   ar
    47    34    35    1
    48    32    33    1
