@<TRIPOS>MOLECULE
1,2
 46 48 0 0 0
SMALL
GASTEIGER

@<TRIPOS>ATOM
      1 SI          3.0394    3.8988   13.8488 Si      1  UNL1        0.0000
      2 SI         -0.9608    3.8292   12.4820 Si      1  UNL1        0.0000
      3 O           1.5926    5.0831   11.5012 O.3     1  UNL1        0.0000
      4 C           3.4298    2.4101   12.6999 C.3     1  UNL1        0.0000
      5 H           2.9312    2.5103   11.7416 H       1  UNL1        0.0000
      6 H           3.0952    1.4791   13.1488 H       1  UNL1        0.0000
      7 H           4.4957    2.3240   12.5102 H       1  UNL1        0.0000
      8 C           4.3303    3.6930   15.2543 C.3     1  UNL1        0.0000
      9 H           4.0635    2.8403   15.8696 H       1  UNL1        0.0000
     10 H           4.4226    4.5529   15.9061 H       1  UNL1        0.0000
     11 H           5.3115    3.4917   14.8351 H       1  UNL1        0.0000
     12 C           3.5246    5.4184   12.8031 C.ar    1  UNL1        0.0000
     13 C           4.6686    6.1630   13.0556 C.ar    1  UNL1        0.0000
     14 H           5.3099    5.8807   13.8761 H       1  UNL1        0.0000
     15 C           4.9961    7.2599   12.2796 C.ar    1  UNL1        0.0000
     16 H           5.8836    7.8347   12.5006 H       1  UNL1        0.0000
     17 C           4.1962    7.6201   11.2089 C.ar    1  UNL1        0.0000
     18 H           4.4765    8.4722   10.6112 H       1  UNL1        0.0000
     19 C           3.0586    6.8886   10.9017 C.ar    1  UNL1        0.0000
     20 C           2.7353    5.8050   11.7191 C.ar    1  UNL1        0.0000
     21 C           2.1774    7.1444    9.6924 C.3     1  UNL1        0.0000
     22 C           2.5808    6.1316    8.6010 C.3     1  UNL1        0.0000
     23 H           3.6175    6.2893    8.3098 H       1  UNL1        0.0000
     24 H           1.9452    6.2523    7.7259 H       1  UNL1        0.0000
     25 H           2.4762    5.1121    8.9652 H       1  UNL1        0.0000
     26 C           2.3396    8.5588    9.1364 C.3     1  UNL1        0.0000
     27 H           2.0633    9.3030    9.8805 H       1  UNL1        0.0000
     28 H           1.7187    8.6911    8.2544 H       1  UNL1        0.0000
     29 H           3.3686    8.7279    8.8305 H       1  UNL1        0.0000
     30 C           0.5341    5.7578   10.9547 C.ar    1  UNL1        0.0000
     31 C           0.7464    6.8367   10.0950 C.ar    1  UNL1        0.0000
     32 C          -0.3633    7.5162    9.6150 C.ar    1  UNL1        0.0000
     33 H          -0.2444    8.3621    8.9576 H       1  UNL1        0.0000
     34 C          -1.6404    7.1106    9.9615 C.ar    1  UNL1        0.0000
     35 H          -2.4949    7.6439    9.5713 H       1  UNL1        0.0000
     36 C          -1.8231    6.0221   10.7948 C.ar    1  UNL1        0.0000
     37 H          -2.8237    5.7058   11.0458 H       1  UNL1        0.0000
     38 C          -0.7420    5.3294   11.3228 C.ar    1  UNL1        0.0000
     39 C          -2.8355    3.5949   12.8217 C.3     1  UNL1        0.0000
     40 H          -3.3571    3.3536   11.9004 H       1  UNL1        0.0000
     41 H          -3.3210    4.4603   13.2559 H       1  UNL1        0.0000
     42 H          -2.9800    2.7602   13.4995 H       1  UNL1        0.0000
     43 C          -0.5406    2.3241   11.3660 C.3     1  UNL1        0.0000
     44 H          -1.2642    2.2106   10.5641 H       1  UNL1        0.0000
     45 H          -0.5377    1.4046   11.9445 H       1  UNL1        0.0000
     46 H           0.4397    2.4303   10.9134 H       1  UNL1        0.0000
@<TRIPOS>BOND
     1    24    22    1
     2    28    26    1
     3    23    22    1
     4    22    25    1
     5    22    21    1
     6    29    26    1
     7    33    32    1
     8    26    21    1
     9    26    27    1
    10    35    34    1
    11    32    34   ar
    12    32    31   ar
    13    21    31    1
    14    21    19    1
    15    34    36   ar
    16    31    30   ar
    17    44    43    1
    18    18    17    1
    19    36    37    1
    20    36    38   ar
    21    19    17   ar
    22    19    20   ar
    23    46    43    1
    24    30    38   ar
    25    30     3    1
    26    17    15   ar
    27    38     2    1
    28    43    45    1
    29    43     2    1
    30     3    20    1
    31    20    12   ar
    32     5     4    1
    33    40    39    1
    34    15    16    1
    35    15    13   ar
    36     2    39    1
    37     7     4    1
    38     4     6    1
    39     4     1    1
    40    12    13   ar
    41    12     1    1
    42    39    41    1
    43    39    42    1
    44    13    14    1
    45     1     8    1
    46    11     8    1
    47     8     9    1
    48     8    10    1
