@<TRIPOS>MOLECULE
1,2
 46 48 0 0 0
SMALL
GASTEIGER

@<TRIPOS>ATOM
      1 SI         -2.2365    5.2332   12.6057 Si      1  UNL1        0.0000
      2 SI         -1.3133    7.6870   15.1874 Si      1  UNL1        0.0000
      3 O          -0.9666    7.7722   12.3620 O.3     1  UNL1        0.0000
      4 C          -3.1978    3.6539   11.9882 C.3     1  UNL1        0.0000
      5 C          -0.4166    4.5742   12.5569 C.3     1  UNL1        0.0000
      6 C           0.5112    7.0371   15.1566 C.3     1  UNL1        0.0000
      7 C          -1.3958    8.4009   16.9992 C.3     1  UNL1        0.0000
      8 C          -2.2488    6.3491   11.0317 C.ar    1  UNL1        0.0000
      9 C          -2.8916    6.1097    9.8284 C.ar    1  UNL1        0.0000
     10 C          -2.8416    7.0353    8.7979 C.ar    1  UNL1        0.0000
     11 C          -2.1325    8.2163    8.9423 C.ar    1  UNL1        0.0000
     12 C          -1.4628    8.4916   10.1269 C.ar    1  UNL1        0.0000
     13 C          -1.5478    7.5450   11.1454 C.ar    1  UNL1        0.0000
     14 C          -1.1306    9.2876   14.1283 C.ar    1  UNL1        0.0000
     15 C          -1.1703   10.6011   14.5649 C.ar    1  UNL1        0.0000
     16 C          -1.0541   11.6519   13.6696 C.ar    1  UNL1        0.0000
     17 C          -0.8856   11.4120   12.3161 C.ar    1  UNL1        0.0000
     18 C          -0.8310   10.1109   11.8367 C.ar    1  UNL1        0.0000
     19 C          -0.9580    9.0809   12.7642 C.ar    1  UNL1        0.0000
     20 C          -0.6020    9.7168   10.3874 C.3     1  UNL1        0.0000
     21 C          -0.8813   10.8594    9.4117 C.3     1  UNL1        0.0000
     22 C           0.8732    9.2925   10.2407 C.3     1  UNL1        0.0000
     23 H          -4.2320    3.8761   11.7385 H       1  UNL1        0.0000
     24 H          -2.7287    3.2205   11.1102 H       1  UNL1        0.0000
     25 H          -3.2035    2.8932   12.7641 H       1  UNL1        0.0000
     26 H          -0.1914    3.9514   13.4173 H       1  UNL1        0.0000
     27 H          -0.2500    3.9806   11.6622 H       1  UNL1        0.0000
     28 H           0.2930    5.3928   12.5474 H       1  UNL1        0.0000
     29 H           0.6104    6.0906   15.6793 H       1  UNL1        0.0000
     30 H           0.8537    6.8896   14.1394 H       1  UNL1        0.0000
     31 H           1.1785    7.7518   15.6304 H       1  UNL1        0.0000
     32 H          -1.4313    7.5889   17.7206 H       1  UNL1        0.0000
     33 H          -0.5224    9.0034   17.2289 H       1  UNL1        0.0000
     34 H          -2.2767    9.0178   17.1559 H       1  UNL1        0.0000
     35 H          -0.2185   11.6964    9.6169 H       1  UNL1        0.0000
     36 H          -0.6904   10.5372    8.3910 H       1  UNL1        0.0000
     37 H          -1.9119   11.2005    9.4885 H       1  UNL1        0.0000
     38 H           1.1075    8.4790   10.9234 H       1  UNL1        0.0000
     39 H           1.0673    8.9560    9.2238 H       1  UNL1        0.0000
     40 H           1.5281   10.1319   10.4674 H       1  UNL1        0.0000
     41 H          -3.4499    5.1954    9.6982 H       1  UNL1        0.0000
     42 H          -3.3559    6.8366    7.8676 H       1  UNL1        0.0000
     43 H          -2.1060    8.9171    8.1222 H       1  UNL1        0.0000
     44 H          -1.3045   10.8065   15.6158 H       1  UNL1        0.0000
     45 H          -1.0917   12.6721   14.0261 H       1  UNL1        0.0000
     46 H          -0.7956   12.2487   11.6409 H       1  UNL1        0.0000
@<TRIPOS>BOND
     1    42    10    1
     2    43    11    1
     3    36    21    1
     4    10    11   ar
     5    10     9   ar
     6    11    12   ar
     7    39    22    1
     8    21    37    1
     9    21    35    1
    10    21    20    1
    11    41     9    1
    12     9     8   ar
    13    12    20    1
    14    12    13   ar
    15    22    20    1
    16    22    40    1
    17    22    38    1
    18    20    18    1
    19     8    13   ar
    20     8     1    1
    21    24     4    1
    22    13     3    1
    23    46    17    1
    24    27     5    1
    25    23     4    1
    26    18    17   ar
    27    18    19   ar
    28     4     1    1
    29     4    25    1
    30    17    16   ar
    31     3    19    1
    32    28     5    1
    33     5     1    1
    34     5    26    1
    35    19    14   ar
    36    16    45    1
    37    16    15   ar
    38    14    15   ar
    39    14     2    1
    40    30     6    1
    41    15    44    1
    42     6     2    1
    43     6    31    1
    44     6    29    1
    45     2     7    1
    46     7    34    1
    47     7    33    1
    48     7    32    1
