@<TRIPOS>MOLECULE
1,2
 46 48 0 0 0
SMALL
GASTEIGER

@<TRIPOS>ATOM
      1 SI         -1.5816    0.0163   13.1680 Si      1  UNL1        0.0000
      2 SI         -0.8664    0.2947   16.7661 Si      1  UNL1        0.0000
      3 O          -0.9507   -2.1953   15.0994 O.3     1  UNL1        0.0000
      4 C          -1.2298    0.5728   11.3451 C.3     1  UNL1        0.0000
      5 H          -2.1040    0.4235   10.7204 H       1  UNL1        0.0000
      6 H          -0.3999    0.0388   10.8948 H       1  UNL1        0.0000
      7 H          -0.9936    1.6306   11.3266 H       1  UNL1        0.0000
      8 C          -3.2658    0.8698   13.5849 C.3     1  UNL1        0.0000
      9 H          -3.1141    1.9124   13.8381 H       1  UNL1        0.0000
     10 H          -3.7587    0.3916   14.4237 H       1  UNL1        0.0000
     11 H          -3.9368    0.8238   12.7332 H       1  UNL1        0.0000
     12 C           0.3687    0.9114   18.1394 C.3     1  UNL1        0.0000
     13 H           1.0268    1.6825   17.7491 H       1  UNL1        0.0000
     14 H           0.9864    0.1100   18.5371 H       1  UNL1        0.0000
     15 H          -0.1767    1.3465   18.9703 H       1  UNL1        0.0000
     16 C          -2.5122    1.1948   17.2106 C.3     1  UNL1        0.0000
     17 H          -3.3649    0.7522   16.7078 H       1  UNL1        0.0000
     18 H          -2.4632    2.2392   16.9240 H       1  UNL1        0.0000
     19 H          -2.6979    1.1486   18.2797 H       1  UNL1        0.0000
     20 C          -1.2755   -1.5156   17.3523 C.ar    1  UNL1        0.0000
     21 C          -1.6329   -1.8500   18.6484 C.ar    1  UNL1        0.0000
     22 H          -1.5683   -1.0976   19.4195 H       1  UNL1        0.0000
     23 C          -2.0818   -3.1212   18.9562 C.ar    1  UNL1        0.0000
     24 H          -2.3522   -3.3707   19.9722 H       1  UNL1        0.0000
     25 C          -2.2119   -4.0772   17.9637 C.ar    1  UNL1        0.0000
     26 H          -2.5933   -5.0512   18.2245 H       1  UNL1        0.0000
     27 C          -1.8553   -3.7902   16.6533 C.ar    1  UNL1        0.0000
     28 C          -1.9440   -4.7806   15.5038 C.3     1  UNL1        0.0000
     29 C          -2.3014   -3.9866   14.2564 C.ar    1  UNL1        0.0000
     30 C          -3.1039   -4.4653   13.2294 C.ar    1  UNL1        0.0000
     31 H          -3.5139   -5.4612   13.2761 H       1  UNL1        0.0000
     32 C          -3.3886   -3.6751   12.1292 C.ar    1  UNL1        0.0000
     33 H          -4.0064   -4.0723   11.3370 H       1  UNL1        0.0000
     34 C          -2.9107   -2.3794   12.0541 C.ar    1  UNL1        0.0000
     35 H          -3.1723   -1.7580   11.2118 H       1  UNL1        0.0000
     36 C          -2.1102   -1.8559   13.0573 C.ar    1  UNL1        0.0000
     37 C          -1.7941   -2.6952   14.1199 C.ar    1  UNL1        0.0000
     38 C          -1.3603   -2.5148   16.3922 C.ar    1  UNL1        0.0000
     39 C          -0.5573   -5.4237   15.3165 C.3     1  UNL1        0.0000
     40 H          -0.5654   -6.0890   14.4545 H       1  UNL1        0.0000
     41 H          -0.2894   -5.9987   16.2012 H       1  UNL1        0.0000
     42 H           0.2071   -4.6639   15.1656 H       1  UNL1        0.0000
     43 C          -2.9578   -5.8929   15.7782 C.3     1  UNL1        0.0000
     44 H          -3.9550   -5.4801   15.9133 H       1  UNL1        0.0000
     45 H          -2.6806   -6.4479   16.6705 H       1  UNL1        0.0000
     46 H          -2.9757   -6.6021   14.9545 H       1  UNL1        0.0000
@<TRIPOS>BOND
     1     5     4    1
     2     6     4    1
     3    35    34    1
     4     7     4    1
     5    33    32    1
     6     4     1    1
     7    34    32   ar
     8    34    36   ar
     9    32    30   ar
    10    11     8    1
    11    36     1    1
    12    36    37   ar
    13     1     8    1
    14    30    31    1
    15    30    29   ar
    16     8     9    1
    17     8    10    1
    18    37    29   ar
    19    37     3    1
    20    29    28    1
    21    40    39    1
    22    46    43    1
    23     3    38    1
    24    42    39    1
    25    39    28    1
    26    39    41    1
    27    28    43    1
    28    28    27    1
    29    43    44    1
    30    43    45    1
    31    38    27   ar
    32    38    20   ar
    33    27    25   ar
    34    17    16    1
    35     2    16    1
    36     2    20    1
    37     2    12    1
    38    18    16    1
    39    16    19    1
    40    20    21   ar
    41    13    12    1
    42    25    26    1
    43    25    23   ar
    44    12    14    1
    45    12    15    1
    46    21    23   ar
    47    21    22    1
    48    23    24    1
