@<TRIPOS>MOLECULE
1,5
 29 28 0 0 0
SMALL
GASTEIGER

@<TRIPOS>ATOM
      1 SI          4.5122    7.3003   11.9529 Si      1  UNL1        0.0000
      2 O           3.0826    8.0482   12.2487 O.3     1  UNL1        0.0000
      3 SI          1.5005    7.8725   11.9096 Si      1  UNL1        0.0000
      4 O           1.2589    6.7606   10.7460 O.3     1  UNL1        0.0000
      5 SI          2.0826    5.5783    9.9618 Si      1  UNL1        0.0000
      6 C           5.7943    8.6468   11.5281 C.3     1  UNL1        0.0000
      7 H           5.5383    9.1552   10.6067 H       1  UNL1        0.0000
      8 H           6.7774    8.2086   11.4038 H       1  UNL1        0.0000
      9 H           5.8600    9.3933   12.3118 H       1  UNL1        0.0000
     10 C           5.0458    6.4329   13.5696 C.3     1  UNL1        0.0000
     11 H           4.3933    5.5972   13.7948 H       1  UNL1        0.0000
     12 H           5.0124    7.1178   14.4098 H       1  UNL1        0.0000
     13 H           6.0571    6.0521   13.4941 H       1  UNL1        0.0000
     14 C           0.8745    9.5337   11.2466 C.3     1  UNL1        0.0000
     15 H           1.0120   10.3207   11.9795 H       1  UNL1        0.0000
     16 H          -0.1813    9.4828   11.0054 H       1  UNL1        0.0000
     17 H           1.4084    9.8200   10.3464 H       1  UNL1        0.0000
     18 C           0.6374    7.2565   13.4856 C.3     1  UNL1        0.0000
     19 H           0.7592    7.9625   14.2997 H       1  UNL1        0.0000
     20 H           1.0480    6.3046   13.8079 H       1  UNL1        0.0000
     21 H          -0.4257    7.1199   13.3208 H       1  UNL1        0.0000
     22 C           1.4782    3.9033   10.6542 C.3     1  UNL1        0.0000
     23 H           1.8055    3.7675   11.6788 H       1  UNL1        0.0000
     24 H           1.8651    3.0764   10.0712 H       1  UNL1        0.0000
     25 H           0.3957    3.8410   10.6387 H       1  UNL1        0.0000
     26 C           1.6210    5.6829    8.1143 C.3     1  UNL1        0.0000
     27 H           1.9606    6.6142    7.6774 H       1  UNL1        0.0000
     28 H           0.5481    5.6204    7.9694 H       1  UNL1        0.0000
     29 H           2.0787    4.8704    7.5624 H       1  UNL1        0.0000
@<TRIPOS>BOND
     1    29    26    1
     2    27    26    1
     3    28    26    1
     4    26     5    1
     5     5    22    1
     6     5     4    1
     7    24    22    1
     8    17    14    1
     9     7     6    1
    10    25    22    1
    11    22    23    1
    12     4     3    1
    13    16    14    1
    14    14     3    1
    15    14    15    1
    16     8     6    1
    17     6     1    1
    18     6     9    1
    19     3     2    1
    20     3    18    1
    21     1     2    1
    22     1    10    1
    23    21    18    1
    24    18    20    1
    25    18    19    1
    26    13    10    1
    27    10    11    1
    28    10    12    1
