@<TRIPOS>MOLECULE
1,2
 33 32 0 0 0
SMALL
GASTEIGER

@<TRIPOS>ATOM
      1 SI          0.9405    4.2188    3.7050 Si      1  UNL1        0.0000
      2 SI          2.0666    2.0179    2.4113 Si      1  UNL1        0.0000
      3 N           2.3703    3.9471    2.4086 N.4     1  UNL1        0.0000
      4 C           1.4056    5.7715    4.7449 C.3     1  UNL1        0.0000
      5 C          -0.5479    4.8473    2.6686 C.3     1  UNL1        0.0000
      6 C           3.6988    1.0447    2.1048 C.3     1  UNL1        0.0000
      7 C           1.1585    1.7148    0.7473 C.3     1  UNL1        0.0000
      8 C           3.6539    4.2948    3.0145 C.3     1  UNL1        0.0000
      9 C           4.8800    4.1440    2.1188 C.3     1  UNL1        0.0000
     10 C           2.1941    4.5999    1.1142 C.3     1  UNL1        0.0000
     11 C           2.3259    6.1200    1.1256 C.3     1  UNL1        0.0000
     12 H          -0.3817    5.7747    2.1304 H       1  UNL1        0.0000
     13 H          -0.8830    4.0954    1.9608 H       1  UNL1        0.0000
     14 H          -1.3734    5.0167    3.3522 H       1  UNL1        0.0000
     15 H           2.3048    5.6362    5.3363 H       1  UNL1        0.0000
     16 H           0.5934    5.9609    5.4395 H       1  UNL1        0.0000
     17 H           1.5328    6.6708    4.1490 H       1  UNL1        0.0000
     18 H           0.9789    0.6487    0.6548 H       1  UNL1        0.0000
     19 H           1.7216    2.0253   -0.1280 H       1  UNL1        0.0000
     20 H           0.1869    2.1973    0.7197 H       1  UNL1        0.0000
     21 H           4.0745    1.1495    1.0905 H       1  UNL1        0.0000
     22 H           4.4982    1.2933    2.7938 H       1  UNL1        0.0000
     23 H           3.4690   -0.0069    2.2487 H       1  UNL1        0.0000
     24 H           3.6154    5.3262    3.3721 H       1  UNL1        0.0000
     25 H           3.7729    3.6490    3.8868 H       1  UNL1        0.0000
     26 H           5.7745    4.1979    2.7356 H       1  UNL1        0.0000
     27 H           4.8769    3.1929    1.6010 H       1  UNL1        0.0000
     28 H           4.9402    4.9382    1.3795 H       1  UNL1        0.0000
     29 H           1.1966    4.3437    0.7643 H       1  UNL1        0.0000
     30 H           2.9127    4.1862    0.4010 H       1  UNL1        0.0000
     31 H           2.0371    6.5053    0.1503 H       1  UNL1        0.0000
     32 H           3.3437    6.4437    1.3246 H       1  UNL1        0.0000
     33 H           1.6738    6.5584    1.8733 H       1  UNL1        0.0000
@<TRIPOS>BOND
     1    19     7    1
     2    31    11    1
     3    30    10    1
     4    18     7    1
     5    20     7    1
     6     7     2    1
     7    29    10    1
     8    21     6    1
     9    10    11    1
    10    10     3    1
    11    11    32    1
    12    11    33    1
    13    28     9    1
    14    27     9    1
    15    13     5    1
    16     6    23    1
    17     6     2    1
    18     6    22    1
    19     9    26    1
    20     9     8    1
    21    12     5    1
    22     3     2    1
    23     3     8    1
    24     3     1    1
    25     5    14    1
    26     5     1    1
    27     8    24    1
    28     8    25    1
    29     1     4    1
    30    17     4    1
    31     4    15    1
    32     4    16    1
