@<TRIPOS>MOLECULE
1,3
 73 74 0 0 0
SMALL
GASTEIGER

@<TRIPOS>ATOM
      1 SI          8.1935    5.9472    8.5204 Si      1  UNL1        0.0000
      2 SI          8.1935    3.6713    9.4503 Si      1  UNL1        0.0000
      3 SI          8.1935    2.4118    7.3376 Si      1  UNL1        0.0000
      4 SI          6.3107    0.9190    7.2991 Si      1  UNL1        0.0000
      5 SI          6.3114    7.1657    9.3841 Si      1  UNL1        0.0000
      6 C           5.7580    4.8104    6.0383 C.3     1  UNL1        0.0000
      7 H           5.2174    4.5130    6.9255 H       1  UNL1        0.0000
      8 C           6.1073    6.1350    5.6840 C.2     1  UNL1        0.0000
      9 H           5.8474    7.0298    6.2342 H       1  UNL1        0.0000
     10 C           4.6058    1.7785    7.4890 C.3     1  UNL1        0.0000
     11 H           4.3088    2.3227    6.5992 H       1  UNL1        0.0000
     12 H           4.6110    2.4788    8.3183 H       1  UNL1        0.0000
     13 H           3.8252    1.0503    7.6931 H       1  UNL1        0.0000
     14 C           6.6983    3.2881   10.5985 C.3     1  UNL1        0.0000
     15 H           6.7032    2.2559   10.9344 H       1  UNL1        0.0000
     16 H           5.7608    3.4562   10.0802 H       1  UNL1        0.0000
     17 H           6.6982    3.9180   11.4825 H       1  UNL1        0.0000
     18 C           6.2411    8.9250    8.6150 C.3     1  UNL1        0.0000
     19 H           6.4889    8.9151    7.5567 H       1  UNL1        0.0000
     20 H           6.9517    9.5857    9.1010 H       1  UNL1        0.0000
     21 H           5.2577    9.3759    8.7154 H       1  UNL1        0.0000
     22 C           6.2395   -0.0327    5.6316 C.3     1  UNL1        0.0000
     23 H           6.9611   -0.8429    5.6200 H       1  UNL1        0.0000
     24 H           6.4706    0.6110    4.7868 H       1  UNL1        0.0000
     25 H           5.2603   -0.4678    5.4514 H       1  UNL1        0.0000
     26 C           4.6072    6.3614    9.0233 C.3     1  UNL1        0.0000
     27 H           3.8263    6.8217    9.6230 H       1  UNL1        0.0000
     28 H           4.6141    5.3042    9.2690 H       1  UNL1        0.0000
     29 H           4.3093    6.4570    7.9850 H       1  UNL1        0.0000
     30 C           6.2945   -0.4232    8.6668 C.3     1  UNL1        0.0000
     31 H           5.3604   -0.9792    8.6784 H       1  UNL1        0.0000
     32 H           6.4210    0.0219    9.6481 H       1  UNL1        0.0000
     33 H           7.0963   -1.1404    8.5297 H       1  UNL1        0.0000
     34 C           6.2946    7.4252   11.2828 C.3     1  UNL1        0.0000
     35 H           7.0962    8.0823   11.6015 H       1  UNL1        0.0000
     36 H           6.4211    6.4820   11.8040 H       1  UNL1        0.0000
     37 H           5.3604    7.8640   11.6240 H       1  UNL1        0.0000
     38 C           6.1088    3.9667    4.9579 C.2     1  UNL1        0.0000
     39 H           5.8507    2.9205    4.8584 H       1  UNL1        0.0000
     40 C           6.6573    4.7722    3.9401 C.2     1  UNL1        0.0000
     41 C           6.6565    6.1056    4.3866 C.2     1  UNL1        0.0000
     42 H           6.9004    4.4394    2.9387 H       1  UNL1        0.0000
     43 H           6.8989    6.9745    3.7877 H       1  UNL1        0.0000
     44 SI         10.0763    0.9190    7.2990 Si      1  UNL1        0.0000
     45 C          11.7812    1.7785    7.4889 C.3     1  UNL1        0.0000
     46 H          12.0782    2.3227    6.5992 H       1  UNL1        0.0000
     47 H          11.7760    2.4788    8.3183 H       1  UNL1        0.0000
     48 H          12.5618    1.0503    7.6931 H       1  UNL1        0.0000
     49 C          10.1475   -0.0326    5.6315 C.3     1  UNL1        0.0000
     50 H           9.4259   -0.8428    5.6199 H       1  UNL1        0.0000
     51 H           9.9164    0.6111    4.7867 H       1  UNL1        0.0000
     52 H          11.1267   -0.4677    5.4513 H       1  UNL1        0.0000
     53 C          10.0925   -0.4233    8.6666 C.3     1  UNL1        0.0000
     54 H          11.0266   -0.9792    8.6783 H       1  UNL1        0.0000
     55 H           9.9660    0.0218    9.6480 H       1  UNL1        0.0000
     56 H           9.2907   -1.1405    8.5295 H       1  UNL1        0.0000
     57 C           9.6887    3.2881   10.5985 C.3     1  UNL1        0.0000
     58 H           9.6838    2.2558   10.9343 H       1  UNL1        0.0000
     59 H          10.6262    3.4561   10.0802 H       1  UNL1        0.0000
     60 H           9.6888    3.9180   11.4825 H       1  UNL1        0.0000
     61 SI         10.0756    7.1656    9.3841 Si      1  UNL1        0.0000
     62 C          10.1459    8.9250    8.6152 C.3     1  UNL1        0.0000
     63 H           9.8981    8.9151    7.5569 H       1  UNL1        0.0000
     64 H           9.4353    9.5856    9.1012 H       1  UNL1        0.0000
     65 H          11.1294    9.3759    8.7156 H       1  UNL1        0.0000
     66 C          11.7798    6.3614    9.0234 C.3     1  UNL1        0.0000
     67 H          12.5607    6.8216    9.6231 H       1  UNL1        0.0000
     68 H          11.7729    5.3041    9.2690 H       1  UNL1        0.0000
     69 H          12.0777    6.4570    7.9851 H       1  UNL1        0.0000
     70 C          10.0924    7.4250   11.2828 C.3     1  UNL1        0.0000
     71 H           9.2907    8.0822   11.6016 H       1  UNL1        0.0000
     72 H           9.9659    6.4819   11.8041 H       1  UNL1        0.0000
     73 H          11.0266    7.8639   11.6241 H       1  UNL1        0.0000
@<TRIPOS>BOND
     1    42    40    1
     2    43    41    1
     3    40    41    1
     4    40    38    2
     5    41     8    2
     6    51    49    1
     7    24    22    1
     8    39    38    1
     9    38     6    1
    10    52    49    1
    11    25    22    1
    12    50    49    1
    13    23    22    1
    14    49    44    1
    15    22     4    1
    16     8     6    1
    17     8     9    1
    18     6     7    1
    19    46    45    1
    20    11    10    1
    21    44     3    1
    22    44    45    1
    23    44    53    1
    24     4     3    1
    25     4    10    1
    26     4    30    1
    27     3     2    1
    28    45    48    1
    29    45    47    1
    30    10    13    1
    31    10    12    1
    32    19    18    1
    33    63    62    1
    34    29    26    1
    35    69    66    1
    36     1     5    1
    37     1    61    1
    38     1     2    1
    39    56    53    1
    40    33    30    1
    41    18    21    1
    42    18    20    1
    43    18     5    1
    44    62    65    1
    45    62    64    1
    46    62    61    1
    47    53    54    1
    48    53    55    1
    49    30    31    1
    50    30    32    1
    51    26    28    1
    52    26     5    1
    53    26    27    1
    54    66    68    1
    55    66    61    1
    56    66    67    1
    57     5    34    1
    58    61    70    1
    59     2    14    1
    60     2    57    1
    61    16    14    1
    62    59    57    1
    63    14    15    1
    64    14    17    1
    65    57    58    1
    66    57    60    1
    67    34    35    1
    68    34    37    1
    69    34    36    1
    70    70    71    1
    71    70    73    1
    72    70    72    1
    73     1     8    0
    74     3    38    0
