@<TRIPOS>MOLECULE
1,2
 46 48 0 0 0
SMALL
GASTEIGER

@<TRIPOS>ATOM
      1 SI         -1.1505    4.6885    7.0463 Si      1  UNL1        0.0000
      2 SI          2.7877    3.3705    7.2849 Si      1  UNL1        0.0000
      3 O           0.5923    3.0131    5.2949 O.3     1  UNL1        0.0000
      4 C          -0.6774    6.2070    5.9412 C.3     1  UNL1        0.0000
      5 C          -2.7564    5.3226    7.8980 C.3     1  UNL1        0.0000
      6 C           4.3491    2.9462    8.3280 C.3     1  UNL1        0.0000
      7 C           3.4429    4.8264    6.1883 C.3     1  UNL1        0.0000
      8 C          -1.6932    3.3964    5.7425 C.ar    1  UNL1        0.0000
      9 C          -3.0190    3.0716    5.4965 C.ar    1  UNL1        0.0000
     10 C          -3.3602    2.1092    4.5645 C.ar    1  UNL1        0.0000
     11 C          -2.3759    1.4650    3.8364 C.ar    1  UNL1        0.0000
     12 C          -1.0376    1.7691    4.0365 C.ar    1  UNL1        0.0000
     13 C          -0.7205    2.7219    5.0027 C.ar    1  UNL1        0.0000
     14 C           2.5840    1.9636    6.0033 C.ar    1  UNL1        0.0000
     15 C           3.4660    0.8989    5.8924 C.ar    1  UNL1        0.0000
     16 C           3.2599   -0.1094    4.9691 C.ar    1  UNL1        0.0000
     17 C           2.1730   -0.0597    4.1146 C.ar    1  UNL1        0.0000
     18 C           1.2739    0.9944    4.1778 C.ar    1  UNL1        0.0000
     19 C           1.4892    1.9815    5.1375 C.ar    1  UNL1        0.0000
     20 C           0.1047    1.1816    3.2290 C.3     1  UNL1        0.0000
     21 C           0.5206    2.2300    2.1763 C.3     1  UNL1        0.0000
     22 C          -0.2838   -0.1089    2.5093 C.3     1  UNL1        0.0000
     23 H           0.1088    5.9555    5.2357 H       1  UNL1        0.0000
     24 H          -0.3257    7.0398    6.5435 H       1  UNL1        0.0000
     25 H          -1.5350    6.5511    5.3697 H       1  UNL1        0.0000
     26 H          -3.3068    4.5359    8.4009 H       1  UNL1        0.0000
     27 H          -3.4152    5.7843    7.1697 H       1  UNL1        0.0000
     28 H          -2.5127    6.0766    8.6381 H       1  UNL1        0.0000
     29 H           5.2272    2.8941    7.6926 H       1  UNL1        0.0000
     30 H           4.5276    3.7221    9.0642 H       1  UNL1        0.0000
     31 H           4.2596    2.0056    8.8589 H       1  UNL1        0.0000
     32 H           4.3912    4.5659    5.7266 H       1  UNL1        0.0000
     33 H           3.5976    5.7261    6.7770 H       1  UNL1        0.0000
     34 H           2.7452    5.0694    5.3925 H       1  UNL1        0.0000
     35 H          -3.7937    3.5741    6.0546 H       1  UNL1        0.0000
     36 H          -4.3982    1.8610    4.3958 H       1  UNL1        0.0000
     37 H          -2.6640    0.7250    3.1071 H       1  UNL1        0.0000
     38 H           4.3203    0.8557    6.5498 H       1  UNL1        0.0000
     39 H           3.9513   -0.9374    4.9064 H       1  UNL1        0.0000
     40 H           2.0366   -0.8507    3.3949 H       1  UNL1        0.0000
     41 H          -0.3078    2.4281    1.4985 H       1  UNL1        0.0000
     42 H           0.8047    3.1644    2.6552 H       1  UNL1        0.0000
     43 H           1.3696    1.8656    1.6009 H       1  UNL1        0.0000
     44 H           0.5525   -0.4786    1.9213 H       1  UNL1        0.0000
     45 H          -1.1037    0.0764    1.8200 H       1  UNL1        0.0000
     46 H          -0.5839   -0.8745    3.2214 H       1  UNL1        0.0000
@<TRIPOS>BOND
     1    41    21    1
     2    43    21    1
     3    45    22    1
     4    44    22    1
     5    21    42    1
     6    21    20    1
     7    22    46    1
     8    22    20    1
     9    37    11    1
    10    20    12    1
    11    20    18    1
    12    40    17    1
    13    11    12   ar
    14    11    10   ar
    15    12    13   ar
    16    17    18   ar
    17    17    16   ar
    18    18    19   ar
    19    36    10    1
    20    10     9   ar
    21    39    16    1
    22    16    15   ar
    23    13     3    1
    24    13     8   ar
    25    19     3    1
    26    19    14   ar
    27    23     4    1
    28    25     4    1
    29    34     7    1
    30     9     8   ar
    31     9    35    1
    32    32     7    1
    33     8     1    1
    34    15    14   ar
    35    15    38    1
    36     4    24    1
    37     4     1    1
    38    14     2    1
    39     7    33    1
    40     7     2    1
    41     1     5    1
    42    27     5    1
    43     2     6    1
    44    29     6    1
    45     5    26    1
    46     5    28    1
    47     6    31    1
    48     6    30    1
