@<TRIPOS>MOLECULE
1,2
 46 48 0 0 0
SMALL
GASTEIGER

@<TRIPOS>ATOM
      1 SI         10.6455    5.3973    4.9277 Si      1  UNL1        0.0000
      2 SI          7.1209    5.7931    4.0750 Si      1  UNL1        0.0000
      3 O           8.9451    3.5342    3.3793 O.3     1  UNL1        0.0000
      4 C          11.9289    5.2590    6.3761 C.3     1  UNL1        0.0000
      5 H          12.9322    5.4899    6.0320 H       1  UNL1        0.0000
      6 H          11.9545    4.2721    6.8318 H       1  UNL1        0.0000
      7 H          11.6797    5.9729    7.1542 H       1  UNL1        0.0000
      8 C          11.1835    6.9970    3.9947 C.3     1  UNL1        0.0000
      9 H          12.2646    7.0393    3.9028 H       1  UNL1        0.0000
     10 H          10.8591    7.8803    4.5326 H       1  UNL1        0.0000
     11 H          10.7644    7.0418    2.9946 H       1  UNL1        0.0000
     12 C          11.2477    4.0435    3.6540 C.ar    1  UNL1        0.0000
     13 C          12.5564    3.8125    3.2586 C.ar    1  UNL1        0.0000
     14 H          13.3568    4.3349    3.7603 H       1  UNL1        0.0000
     15 C          12.8442    2.9399    2.2232 C.ar    1  UNL1        0.0000
     16 H          13.8707    2.7699    1.9310 H       1  UNL1        0.0000
     17 C          11.8280    2.2960    1.5356 C.ar    1  UNL1        0.0000
     18 H          12.0776    1.6454    0.7126 H       1  UNL1        0.0000
     19 C          10.5049    2.4887    1.9041 C.ar    1  UNL1        0.0000
     20 C          10.2600    3.3398    2.9781 C.ar    1  UNL1        0.0000
     21 C           9.2937    1.8534    1.2439 C.3     1  UNL1        0.0000
     22 C           8.7727    0.7247    2.1576 C.3     1  UNL1        0.0000
     23 H           8.4831    1.1037    3.1370 H       1  UNL1        0.0000
     24 H           9.5451   -0.0310    2.2937 H       1  UNL1        0.0000
     25 H           7.9003    0.2552    1.7063 H       1  UNL1        0.0000
     26 C           9.6177    1.2673   -0.1285 C.3     1  UNL1        0.0000
     27 H           8.7283    0.8209   -0.5669 H       1  UNL1        0.0000
     28 H          10.3647    0.4824   -0.0353 H       1  UNL1        0.0000
     29 H           9.9949    2.0369   -0.7987 H       1  UNL1        0.0000
     30 C           8.0891    3.7419    2.3136 C.ar    1  UNL1        0.0000
     31 C           8.2334    2.9403    1.1828 C.ar    1  UNL1        0.0000
     32 C           7.3841    3.1839    0.1146 C.ar    1  UNL1        0.0000
     33 H           7.4574    2.5973   -0.7872 H       1  UNL1        0.0000
     34 C           6.4289    4.1843    0.1960 C.ar    1  UNL1        0.0000
     35 H           5.7740    4.3605   -0.6450 H       1  UNL1        0.0000
     36 C           6.3092    4.9562    1.3381 C.ar    1  UNL1        0.0000
     37 H           5.5641    5.7353    1.3855 H       1  UNL1        0.0000
     38 C           7.1449    4.7546    2.4270 C.ar    1  UNL1        0.0000
     39 C           7.5136    7.5888    3.4834 C.3     1  UNL1        0.0000
     40 H           6.7146    7.9648    2.8529 H       1  UNL1        0.0000
     41 H           8.4373    7.6364    2.9198 H       1  UNL1        0.0000
     42 H           7.6096    8.2530    4.3340 H       1  UNL1        0.0000
     43 C           5.2470    5.8884    4.5701 C.3     1  UNL1        0.0000
     44 H           5.1201    6.5909    5.3865 H       1  UNL1        0.0000
     45 H           4.8578    4.9291    4.8956 H       1  UNL1        0.0000
     46 H           4.6379    6.2324    3.7405 H       1  UNL1        0.0000
@<TRIPOS>BOND
     1    29    26    1
     2    33    32    1
     3    35    34    1
     4    27    26    1
     5    26    28    1
     6    26    21    1
     7    32    34   ar
     8    32    31   ar
     9    34    36   ar
    10    18    17    1
    11    31    21    1
    12    31    30   ar
    13    21    19    1
    14    21    22    1
    15    36    37    1
    16    36    38   ar
    17    17    19   ar
    18    17    15   ar
    19    25    22    1
    20    19    20   ar
    21    16    15    1
    22    22    24    1
    23    22    23    1
    24    15    13   ar
    25    30    38   ar
    26    30     3    1
    27    38     2    1
    28    40    39    1
    29    41    39    1
    30    20     3    1
    31    20    12   ar
    32    11     8    1
    33    13    12   ar
    34    13    14    1
    35    39     2    1
    36    39    42    1
    37    12     1    1
    38    46    43    1
    39     9     8    1
    40     8    10    1
    41     8     1    1
    42     2    43    1
    43    43    45    1
    44    43    44    1
    45     1     4    1
    46     5     4    1
    47     4     6    1
    48     4     7    1
