@<TRIPOS>MOLECULE
1,4
 72 73 0 0 0
SMALL
GASTEIGER

@<TRIPOS>ATOM
      1 SI         10.9839    7.4517   11.0721 Si      1  UNL1        0.0000
      2 SI         12.0493    8.0139    8.9548 Si      1  UNL1        0.0000
      3 SI         12.8820   10.2475    8.9438 Si      1  UNL1        0.0000
      4 SI         13.9624   10.8192   11.0510 Si      1  UNL1        0.0000
      5 SI         11.1030    5.0454   11.2329 Si      1  UNL1        0.0000
      6 SI          8.6383    7.8948   10.7326 Si      1  UNL1        0.0000
      7 SI         16.3075   10.3823   10.6925 Si      1  UNL1        0.0000
      8 SI         13.8407   13.2248   11.2095 Si      1  UNL1        0.0000
      9 C          13.5617    6.8464    8.7934 C.3     1  UNL1        0.0000
     10 H          14.2212    7.1372    7.9818 H       1  UNL1        0.0000
     11 H          13.2582    5.8220    8.6072 H       1  UNL1        0.0000
     12 H          14.1441    6.8499    9.7090 H       1  UNL1        0.0000
     13 C          11.0034    7.6505    7.3817 C.3     1  UNL1        0.0000
     14 H          10.6711    6.6171    7.3483 H       1  UNL1        0.0000
     15 H          11.5709    7.8390    6.4744 H       1  UNL1        0.0000
     16 H          10.1193    8.2788    7.3506 H       1  UNL1        0.0000
     17 C          11.3728   11.4189    8.7800 C.3     1  UNL1        0.0000
     18 H          10.7086   11.1236    7.9739 H       1  UNL1        0.0000
     19 H          11.6790   12.4407    8.5838 H       1  UNL1        0.0000
     20 H          10.7948   11.4251    9.6982 H       1  UNL1        0.0000
     21 C          13.9194   10.5940    7.3613 C.3     1  UNL1        0.0000
     22 H          14.2492   11.6276    7.3132 H       1  UNL1        0.0000
     23 H          13.3479   10.3928    6.4592 H       1  UNL1        0.0000
     24 H          14.8048    9.9673    7.3336 H       1  UNL1        0.0000
     25 C           8.3764    9.6218    9.9675 C.3     1  UNL1        0.0000
     26 H           8.7767   10.3897   10.6207 H       1  UNL1        0.0000
     27 H           7.3232    9.8430    9.8174 H       1  UNL1        0.0000
     28 H           8.8714    9.7151    9.0073 H       1  UNL1        0.0000
     29 C           7.5165    7.8831   12.2907 C.3     1  UNL1        0.0000
     30 H           6.4686    7.9700   12.0137 H       1  UNL1        0.0000
     31 H           7.7470    8.7238   12.9364 H       1  UNL1        0.0000
     32 H           7.6188    6.9740   12.8753 H       1  UNL1        0.0000
     33 C           7.8219    6.6353    9.5428 C.3     1  UNL1        0.0000
     34 H           6.8139    6.9347    9.2685 H       1  UNL1        0.0000
     35 H           7.7564    5.6517    9.9964 H       1  UNL1        0.0000
     36 H           8.3928    6.5376    8.6265 H       1  UNL1        0.0000
     37 C          10.6912    4.1288    9.6042 C.3     1  UNL1        0.0000
     38 H          10.8182    3.0535    9.7037 H       1  UNL1        0.0000
     39 H          11.3372    4.4585    8.7972 H       1  UNL1        0.0000
     40 H           9.6678    4.3104    9.2955 H       1  UNL1        0.0000
     41 C          12.8458    4.4396   11.7451 C.3     1  UNL1        0.0000
     42 H          13.4580    4.2651   10.8665 H       1  UNL1        0.0000
     43 H          12.8136    3.5102   12.3075 H       1  UNL1        0.0000
     44 H          13.3725    5.1692   12.3515 H       1  UNL1        0.0000
     45 C           9.8634    4.3282   12.5215 C.3     1  UNL1        0.0000
     46 H           8.8709    4.7431   12.3739 H       1  UNL1        0.0000
     47 H          10.1553    4.5313   13.5479 H       1  UNL1        0.0000
     48 H           9.7787    3.2493   12.4236 H       1  UNL1        0.0000
     49 C          17.4454   10.4185   12.2388 C.3     1  UNL1        0.0000
     50 H          18.4913   10.3420   11.9513 H       1  UNL1        0.0000
     51 H          17.2317    9.5804   12.8934 H       1  UNL1        0.0000
     52 H          17.3387   11.3308   12.8176 H       1  UNL1        0.0000
     53 C          16.5741    8.6487    9.9441 C.3     1  UNL1        0.0000
     54 H          16.1813    7.8854   10.6071 H       1  UNL1        0.0000
     55 H          17.6278    8.4316    9.7909 H       1  UNL1        0.0000
     56 H          16.0749    8.5427    8.9873 H       1  UNL1        0.0000
     57 C          17.1041   11.6340    9.4811 C.3     1  UNL1        0.0000
     58 H          16.5185   11.7261    8.5737 H       1  UNL1        0.0000
     59 H          18.1076   11.3328    9.1925 H       1  UNL1        0.0000
     60 H          17.1769   12.6204    9.9274 H       1  UNL1        0.0000
     61 C          14.2365   14.1407    9.5764 C.3     1  UNL1        0.0000
     62 H          14.0914   15.2141    9.6714 H       1  UNL1        0.0000
     63 H          13.5961   13.7969    8.7709 H       1  UNL1        0.0000
     64 H          15.2627   13.9750    9.2682 H       1  UNL1        0.0000
     65 C          12.1015   13.8277   11.7368 C.3     1  UNL1        0.0000
     66 H          12.1366   14.7619   12.2909 H       1  UNL1        0.0000
     67 H          11.5850   13.1011   12.3555 H       1  UNL1        0.0000
     68 H          11.4785   13.9923   10.8637 H       1  UNL1        0.0000
     69 C          15.0906   13.9462   12.4855 C.3     1  UNL1        0.0000
     70 H          15.1720   15.0252   12.3857 H       1  UNL1        0.0000
     71 H          16.0825   13.5337   12.3287 H       1  UNL1        0.0000
     72 H          14.8093   13.7436   13.5149 H       1  UNL1        0.0000
@<TRIPOS>BOND
     1    23    21    1
     2    15    13    1
     3    22    21    1
     4    24    21    1
     5    14    13    1
     6    16    13    1
     7    21     3    1
     8    13     2    1
     9    18    17    1
    10    10     9    1
    11    58    57    1
    12    19    17    1
    13    11     9    1
    14    36    33    1
    15    63    61    1
    16    17     3    1
    17    17    20    1
    18     9     2    1
    19     9    12    1
    20    39    37    1
    21     3     2    1
    22     3     4    1
    23     2     1    1
    24    56    53    1
    25    28    25    1
    26    59    57    1
    27    64    61    1
    28    34    33    1
    29    40    37    1
    30    57    60    1
    31    57     7    1
    32    33    35    1
    33    33     6    1
    34    61    62    1
    35    61     8    1
    36    37    38    1
    37    37     5    1
    38    55    53    1
    39    27    25    1
    40    53    54    1
    41    53     7    1
    42    25    26    1
    43    25     6    1
    44     7     4    1
    45     7    49    1
    46     6     1    1
    47     6    29    1
    48    68    65    1
    49    42    41    1
    50     4     8    1
    51     1     5    1
    52     8    65    1
    53     8    69    1
    54     5    41    1
    55     5    45    1
    56    65    66    1
    57    65    67    1
    58    41    43    1
    59    41    44    1
    60    50    49    1
    61    30    29    1
    62    49    52    1
    63    49    51    1
    64    29    32    1
    65    29    31    1
    66    71    69    1
    67    46    45    1
    68    70    69    1
    69    48    45    1
    70    69    72    1
    71    45    47    1
    72     1     9    0
    73     4    17    0
