@<TRIPOS>MOLECULE
1,2
 27 26 0 0 0
SMALL
GASTEIGER

@<TRIPOS>ATOM
      1 SI         11.2440   11.9962   10.5017 Si      1  UNL1        0.0000
      2 SI          8.5601   12.8702   11.1004 Si      1  UNL1        0.0000
      3 N          10.2879   13.6893   10.7740 N.4     1  UNL1        0.0000
      4 C          12.6680   12.5774    9.3265 C.3     1  UNL1        0.0000
      5 H          13.4451   11.8216    9.3095 H       1  UNL1        0.0000
      6 H          13.1257   13.5026    9.6667 H       1  UNL1        0.0000
      7 H          12.3333   12.7175    8.3044 H       1  UNL1        0.0000
      8 C          12.2337   11.8259   12.1553 C.3     1  UNL1        0.0000
      9 H          12.8577   10.9401   12.0958 H       1  UNL1        0.0000
     10 H          11.5837   11.7007   13.0155 H       1  UNL1        0.0000
     11 H          12.8907   12.6698   12.3415 H       1  UNL1        0.0000
     12 C          10.2454   14.4545    9.5414 C.3     1  UNL1        0.0000
     13 H           9.5794   15.3114    9.6447 H       1  UNL1        0.0000
     14 H           9.8813   13.8186    8.7395 H       1  UNL1        0.0000
     15 H          11.2377   14.8190    9.2770 H       1  UNL1        0.0000
     16 C          10.8047   14.5474   11.8198 C.3     1  UNL1        0.0000
     17 H          10.1665   15.4247   11.9479 H       1  UNL1        0.0000
     18 H          11.8110   14.8908   11.5703 H       1  UNL1        0.0000
     19 H          10.8447   14.0041   12.7564 H       1  UNL1        0.0000
     20 C           8.3749   13.0979   13.0133 C.3     1  UNL1        0.0000
     21 H           7.3810   12.7779   13.3072 H       1  UNL1        0.0000
     22 H           8.4842   14.1319   13.3252 H       1  UNL1        0.0000
     23 H           9.0853   12.4961   13.5714 H       1  UNL1        0.0000
     24 C           7.2982   14.2171   10.5082 C.3     1  UNL1        0.0000
     25 H           6.3029   13.9147   10.8195 H       1  UNL1        0.0000
     26 H           7.2745   14.3358    9.4303 H       1  UNL1        0.0000
     27 H           7.4966   15.1884   10.9535 H       1  UNL1        0.0000
@<TRIPOS>BOND
     1     7     4    1
     2    14    12    1
     3    15    12    1
     4     5     4    1
     5     4     6    1
     6     4     1    1
     7    26    24    1
     8    12    13    1
     9    12     3    1
    10     1     3    1
    11     1     8    1
    12    24    25    1
    13    24    27    1
    14    24     2    1
    15     3     2    1
    16     3    16    1
    17     2    20    1
    18    18    16    1
    19    16    17    1
    20    16    19    1
    21     9     8    1
    22     8    11    1
    23     8    10    1
    24    20    21    1
    25    20    22    1
    26    20    23    1
