@<TRIPOS>MOLECULE
1,2
 27 26 0 0 0
SMALL
GASTEIGER

@<TRIPOS>ATOM
      1 SI         11.2463   12.0058   10.5644 Si      1  UNL1        0.0000
      2 SI          8.5297   12.9140   11.1454 Si      1  UNL1        0.0000
      3 N          10.2937   13.7137   10.8722 N.4     1  UNL1        0.0000
      4 C          12.6688   12.5967    9.3934 C.3     1  UNL1        0.0000
      5 H          13.1474   13.5021    9.7569 H       1  UNL1        0.0000
      6 H          12.3266   12.7741    8.3797 H       1  UNL1        0.0000
      7 H          13.4307   11.8270    9.3453 H       1  UNL1        0.0000
      8 C          12.2373   11.7995   12.2132 C.3     1  UNL1        0.0000
      9 H          12.8947   12.6390   12.4162 H       1  UNL1        0.0000
     10 H          12.8603   10.9146   12.1333 H       1  UNL1        0.0000
     11 H          11.5880   11.6562   13.0708 H       1  UNL1        0.0000
     12 C          10.2865   14.5199    9.6644 C.3     1  UNL1        0.0000
     13 H           9.6326   15.3838    9.7852 H       1  UNL1        0.0000
     14 H           9.9269   13.9175    8.8357 H       1  UNL1        0.0000
     15 H          11.2894   14.8762    9.4308 H       1  UNL1        0.0000
     16 C          10.8051   14.5283   11.9552 C.3     1  UNL1        0.0000
     17 H          10.1810   15.4132   12.0984 H       1  UNL1        0.0000
     18 H          11.8223   14.8600   11.7355 H       1  UNL1        0.0000
     19 H          10.8164   13.9544   12.8741 H       1  UNL1        0.0000
     20 C           8.2921   13.1516   13.0514 C.3     1  UNL1        0.0000
     21 H           8.4245   14.1824   13.3642 H       1  UNL1        0.0000
     22 H           8.9653   12.5295   13.6322 H       1  UNL1        0.0000
     23 H           7.2796   12.8641   13.3136 H       1  UNL1        0.0000
     24 C           7.3004   14.2690   10.5072 C.3     1  UNL1        0.0000
     25 H           7.4700   15.2324   10.9804 H       1  UNL1        0.0000
     26 H           6.2899   13.9585   10.7558 H       1  UNL1        0.0000
     27 H           7.3387   14.4067    9.4321 H       1  UNL1        0.0000
@<TRIPOS>BOND
     1     6     4    1
     2    14    12    1
     3     7     4    1
     4     4     5    1
     5     4     1    1
     6    15    12    1
     7    27    24    1
     8    12    13    1
     9    12     3    1
    10    24    26    1
    11    24    25    1
    12    24     2    1
    13     1     3    1
    14     1     8    1
    15     3     2    1
    16     3    16    1
    17     2    20    1
    18    18    16    1
    19    16    17    1
    20    16    19    1
    21    10     8    1
    22     8     9    1
    23     8    11    1
    24    20    23    1
    25    20    21    1
    26    20    22    1
