@<TRIPOS>MOLECULE
1,2
 27 26 0 0 0
SMALL
GASTEIGER

@<TRIPOS>ATOM
      1 SI          4.9450    5.7477    9.2691 Si      1  UNL1        0.0000
      2 SI          6.0187    5.7662   11.9852 Si      1  UNL1        0.0000
      3 N           5.9302    6.9701   10.4479 N.4     1  UNL1        0.0000
      4 C           5.6399    6.2410    7.5386 C.3     1  UNL1        0.0000
      5 H           5.0172    5.8089    6.7625 H       1  UNL1        0.0000
      6 H           6.6490    5.8758    7.3838 H       1  UNL1        0.0000
      7 H           5.6360    7.3183    7.3927 H       1  UNL1        0.0000
      8 C           3.1881    6.5494    9.1738 C.3     1  UNL1        0.0000
      9 H           2.6090    6.0361    8.4131 H       1  UNL1        0.0000
     10 H           3.2291    7.5946    8.8890 H       1  UNL1        0.0000
     11 H           2.6425    6.4690   10.1076 H       1  UNL1        0.0000
     12 C           7.2652    7.2240    9.9270 C.3     1  UNL1        0.0000
     13 H           7.8546    7.7903   10.6478 H       1  UNL1        0.0000
     14 H           7.2154    7.7981    9.0024 H       1  UNL1        0.0000
     15 H           7.7626    6.2797    9.7259 H       1  UNL1        0.0000
     16 C           5.2864    8.2456   10.6913 C.3     1  UNL1        0.0000
     17 H           5.8585    8.8316   11.4133 H       1  UNL1        0.0000
     18 H           4.2886    8.0840   11.0825 H       1  UNL1        0.0000
     19 H           5.2146    8.8203    9.7658 H       1  UNL1        0.0000
     20 C           4.7841    6.5758   13.2276 C.3     1  UNL1        0.0000
     21 H           4.8353    6.0344   14.1655 H       1  UNL1        0.0000
     22 H           3.7576    6.5221   12.8829 H       1  UNL1        0.0000
     23 H           5.0233    7.6124   13.4378 H       1  UNL1        0.0000
     24 C           7.6973    6.2584   12.8104 C.3     1  UNL1        0.0000
     25 H           7.7909    5.7328   13.7562 H       1  UNL1        0.0000
     26 H           7.7354    7.3227   13.0291 H       1  UNL1        0.0000
     27 H           8.5607    6.0093   12.2024 H       1  UNL1        0.0000
@<TRIPOS>BOND
     1     5     4    1
     2     6     4    1
     3     7     4    1
     4     4     1    1
     5     9     8    1
     6    10     8    1
     7    14    12    1
     8     8     1    1
     9     8    11    1
    10     1     3    1
    11    15    12    1
    12    19    16    1
    13    12     3    1
    14    12    13    1
    15     3    16    1
    16     3     2    1
    17    16    18    1
    18    16    17    1
    19     2    24    1
    20     2    20    1
    21    27    24    1
    22    24    26    1
    23    24    25    1
    24    22    20    1
    25    20    23    1
    26    20    21    1
