@<TRIPOS>MOLECULE
1,2
 27 26 0 0 0
SMALL
GASTEIGER

@<TRIPOS>ATOM
      1 SI          2.4528   17.1725    4.2369 Si      1  UNL1        0.0000
      2 SI          1.7568   17.3017    7.0688 Si      1  UNL1        0.0000
      3 N           3.1052   18.0755    5.8499 N.4     1  UNL1        0.0000
      4 C           4.0503   16.9330    3.1769 C.3     1  UNL1        0.0000
      5 H           3.7788   16.5706    2.1911 H       1  UNL1        0.0000
      6 H           4.7363   16.2129    3.6085 H       1  UNL1        0.0000
      7 H           4.5820   17.8697    3.0419 H       1  UNL1        0.0000
      8 C           1.5839   18.6003    3.2742 C.3     1  UNL1        0.0000
      9 H           1.1797   18.1965    2.3502 H       1  UNL1        0.0000
     10 H           2.2604   19.4100    3.0138 H       1  UNL1        0.0000
     11 H           0.7438   19.0101    3.8254 H       1  UNL1        0.0000
     12 C           2.7020   17.1668    8.7477 C.3     1  UNL1        0.0000
     13 H           1.9941   16.9221    9.5329 H       1  UNL1        0.0000
     14 H           3.1740   18.1052    9.0212 H       1  UNL1        0.0000
     15 H           3.4617   16.3931    8.7387 H       1  UNL1        0.0000
     16 C           0.6209   18.8195    7.4309 C.3     1  UNL1        0.0000
     17 H          -0.0672   18.5554    8.2284 H       1  UNL1        0.0000
     18 H           0.0224   19.0935    6.5682 H       1  UNL1        0.0000
     19 H           1.1779   19.6923    7.7592 H       1  UNL1        0.0000
     20 C           4.4198   17.5682    6.1946 C.3     1  UNL1        0.0000
     21 H           5.1540   17.8642    5.4449 H       1  UNL1        0.0000
     22 H           4.3890   16.4818    6.2447 H       1  UNL1        0.0000
     23 H           4.7393   17.9540    7.1628 H       1  UNL1        0.0000
     24 C           3.1732   19.5224    5.7844 C.3     1  UNL1        0.0000
     25 H           3.8933   19.8367    5.0256 H       1  UNL1        0.0000
     26 H           3.4861   19.9368    6.7454 H       1  UNL1        0.0000
     27 H           2.1983   19.9225    5.5288 H       1  UNL1        0.0000
@<TRIPOS>BOND
     1     5     4    1
     2     9     8    1
     3    10     8    1
     4     7     4    1
     5     4     6    1
     6     4     1    1
     7     8    11    1
     8     8     1    1
     9     1     3    1
    10    25    24    1
    11    21    20    1
    12    27    24    1
    13    24     3    1
    14    24    26    1
    15     3    20    1
    16     3     2    1
    17    20    22    1
    18    20    23    1
    19    18    16    1
    20     2    16    1
    21     2    12    1
    22    16    19    1
    23    16    17    1
    24    15    12    1
    25    12    14    1
    26    12    13    1
