@<TRIPOS>MOLECULE
1,2
 24 23 0 0 0
SMALL
GASTEIGER

@<TRIPOS>ATOM
      1 SI         11.6909    7.5384    7.8302 Si      1  UNL1        0.0000
      2 SI          8.8987    6.7513    6.3582 Si      1  UNL1        0.0000
      3 C          12.6763    6.5119    9.1509 C.3     1  UNL1        0.0000
      4 C          12.5803    9.2531    7.8987 C.3     1  UNL1        0.0000
      5 C           7.3589    5.5979    6.0382 C.3     1  UNL1        0.0000
      6 C           8.0368    8.4787    6.1044 C.3     1  UNL1        0.0000
      7 C          10.0069    7.7908    8.7147 C.3     1  UNL1        0.0000
      8 C           9.0061    6.7300    8.2872 C.3     1  UNL1        0.0000
      9 H          12.1211    5.6216    9.4318 H       1  UNL1        0.0000
     10 H          12.8196    7.1039   10.0502 H       1  UNL1        0.0000
     11 H          13.6562    6.1904    8.8140 H       1  UNL1        0.0000
     12 H          13.6052    9.2041    7.5444 H       1  UNL1        0.0000
     13 H          12.6066    9.6105    8.9232 H       1  UNL1        0.0000
     14 H          12.0600    9.9954    7.3027 H       1  UNL1        0.0000
     15 H           7.5417    4.5655    6.3175 H       1  UNL1        0.0000
     16 H           7.0396    5.6057    5.0008 H       1  UNL1        0.0000
     17 H           6.5235    5.9496    6.6345 H       1  UNL1        0.0000
     18 H           8.7526    9.2903    6.1894 H       1  UNL1        0.0000
     19 H           7.2818    8.6251    6.8705 H       1  UNL1        0.0000
     20 H           7.5407    8.5757    5.1429 H       1  UNL1        0.0000
     21 H           9.6029    8.7713    8.4700 H       1  UNL1        0.0000
     22 H          10.1492    7.7711    9.7964 H       1  UNL1        0.0000
     23 H           8.0311    6.9229    8.7366 H       1  UNL1        0.0000
     24 H           9.3364    5.7583    8.6569 H       1  UNL1        0.0000
@<TRIPOS>BOND
     1    16     5    1
     2    20     6    1
     3     5    15    1
     4     5     2    1
     5     5    17    1
     6     6    18    1
     7     6     2    1
     8     6    19    1
     9     2     8    1
    10    14     4    1
    11    12     4    1
    12     1     4    1
    13     1     7    1
    14     1     3    1
    15     4    13    1
    16     8    24    1
    17     8     7    1
    18     8    23    1
    19    21     7    1
    20     7    22    1
    21    11     3    1
    22     3     9    1
    23     3    10    1
