@<TRIPOS>MOLECULE
1,2
 28 28 0 0 0
SMALL
GASTEIGER

@<TRIPOS>ATOM
      1 SI          3.8030   -0.7598   16.2101 Si      1  UNL1        0.0000
      2 SI          3.6549    1.3646   13.8234 Si      1  UNL1        0.0000
      3 C           2.4550   -0.9789   14.8927 C.ar    1  UNL1        0.0000
      4 C           1.5371   -2.0189   14.9279 C.ar    1  UNL1        0.0000
      5 C           0.5609   -2.1534   13.9545 C.ar    1  UNL1        0.0000
      6 C           0.4960   -1.2338   12.9230 C.ar    1  UNL1        0.0000
      7 C           1.4083   -0.1926   12.8789 C.ar    1  UNL1        0.0000
      8 C           2.3896   -0.0493   13.8495 C.ar    1  UNL1        0.0000
      9 C           4.9590   -2.2832   16.2840 C.3     1  UNL1        0.0000
     10 C           3.0416   -0.5436   17.9525 C.3     1  UNL1        0.0000
     11 C           4.7096    1.3246   12.2270 C.3     1  UNL1        0.0000
     12 C           2.7910    3.0711   13.8874 C.3     1  UNL1        0.0000
     13 H           1.5864   -2.7382   15.7334 H       1  UNL1        0.0000
     14 H          -0.1458   -2.9705   13.9997 H       1  UNL1        0.0000
     15 H          -0.2618   -1.3281   12.1576 H       1  UNL1        0.0000
     16 H           1.3566    0.5250   12.0720 H       1  UNL1        0.0000
     17 H           5.7288   -2.1413   17.0339 H       1  UNL1        0.0000
     18 H           4.4231   -3.1933   16.5287 H       1  UNL1        0.0000
     19 H           5.4491   -2.4270   15.3286 H       1  UNL1        0.0000
     20 H           3.8200   -0.4338   18.6988 H       1  UNL1        0.0000
     21 H           2.4265   -1.3892   18.2388 H       1  UNL1        0.0000
     22 H           2.4253    0.3469   17.9820 H       1  UNL1        0.0000
     23 H           5.4347    2.1303   12.2291 H       1  UNL1        0.0000
     24 H           5.2531    0.3896   12.1621 H       1  UNL1        0.0000
     25 H           4.1051    1.4263   11.3328 H       1  UNL1        0.0000
     26 H           3.5212    3.8713   13.8457 H       1  UNL1        0.0000
     27 H           2.2376    3.1741   14.8131 H       1  UNL1        0.0000
     28 H           2.1000    3.2115   13.0639 H       1  UNL1        0.0000
@<TRIPOS>BOND
     1    25    11    1
     2    16     7    1
     3    15     6    1
     4    24    11    1
     5    11    23    1
     6    11     2    1
     7     7     6   ar
     8     7     8   ar
     9     6     5   ar
    10    28    12    1
    11     2     8    1
    12     2    12    1
    13    26    12    1
    14     8     3   ar
    15    12    27    1
    16     5    14    1
    17     5     4   ar
    18     3     4   ar
    19     3     1    1
    20     4    13    1
    21    19     9    1
    22     1     9    1
    23     1    10    1
    24     9    18    1
    25     9    17    1
    26    10    22    1
    27    10    21    1
    28    10    20    1
