@<TRIPOS>MOLECULE
1,2
 28 28 0 0 0
SMALL
GASTEIGER

@<TRIPOS>ATOM
      1 SI          5.5297    3.3390    0.6638 Si      1  UNL1        0.0000
      2 SI          6.4742    4.9166    2.9498 Si      1  UNL1        0.0000
      3 C           6.9518    2.5277    1.6210 C.ar    1  UNL1        0.0000
      4 C           7.5861    1.3391    1.3070 C.ar    1  UNL1        0.0000
      5 C           8.6968    0.9236    2.0225 C.ar    1  UNL1        0.0000
      6 C           9.1941    1.7144    3.0439 C.ar    1  UNL1        0.0000
      7 C           8.5647    2.9071    3.3583 C.ar    1  UNL1        0.0000
      8 C           7.4381    3.3111    2.6630 C.ar    1  UNL1        0.0000
      9 C           6.5363    4.2311   -0.7192 C.3     1  UNL1        0.0000
     10 C           4.7601    1.9157   -0.3995 C.3     1  UNL1        0.0000
     11 C           7.6505    6.2553    2.2088 C.3     1  UNL1        0.0000
     12 C           6.6320    5.3777    4.8136 C.3     1  UNL1        0.0000
     13 H           7.2116    0.7252    0.5006 H       1  UNL1        0.0000
     14 H           9.1822   -0.0120    1.7786 H       1  UNL1        0.0000
     15 H          10.0712    1.3994    3.5936 H       1  UNL1        0.0000
     16 H           8.9537    3.5230    4.1575 H       1  UNL1        0.0000
     17 H           5.9217    4.5481   -1.5544 H       1  UNL1        0.0000
     18 H           7.2833    3.5492   -1.1115 H       1  UNL1        0.0000
     19 H           7.0633    5.0948   -0.3387 H       1  UNL1        0.0000
     20 H           4.5180    1.0438    0.1956 H       1  UNL1        0.0000
     21 H           5.4893    1.6079   -1.1421 H       1  UNL1        0.0000
     22 H           3.8720    2.2192   -0.9414 H       1  UNL1        0.0000
     23 H           7.4831    6.4308    1.1543 H       1  UNL1        0.0000
     24 H           8.6807    5.9356    2.3222 H       1  UNL1        0.0000
     25 H           7.5454    7.2020    2.7277 H       1  UNL1        0.0000
     26 H           6.1266    6.3117    5.0312 H       1  UNL1        0.0000
     27 H           7.6782    5.5161    5.0649 H       1  UNL1        0.0000
     28 H           6.2297    4.6201    5.4743 H       1  UNL1        0.0000
@<TRIPOS>BOND
     1    17     9    1
     2    21    10    1
     3    18     9    1
     4    22    10    1
     5     9    19    1
     6     9     1    1
     7    10    20    1
     8    10     1    1
     9    13     4    1
    10     1     3    1
    11    23    11    1
    12     4     3   ar
    13     4     5   ar
    14     3     8   ar
    15    14     5    1
    16     5     6   ar
    17    11    24    1
    18    11    25    1
    19    11     2    1
    20     8     2    1
    21     8     7   ar
    22     2    12    1
    23     6     7   ar
    24     6    15    1
    25     7    16    1
    26    12    26    1
    27    12    27    1
    28    12    28    1
