@<TRIPOS>MOLECULE
1,2
 28 28 0 0 0
SMALL
GASTEIGER

@<TRIPOS>ATOM
      1 SI          5.6687   10.7668    0.6437 Si      1  UNL1        0.0000
      2 SI          6.3159   12.3440    3.0225 Si      1  UNL1        0.0000
      3 C           7.0224    9.9971    1.7192 C.ar    1  UNL1        0.0000
      4 C           7.3810   10.7883    2.8074 C.ar    1  UNL1        0.0000
      5 C           8.4597   10.4211    3.5932 C.ar    1  UNL1        0.0000
      6 C           9.1644    9.2602    3.3210 C.ar    1  UNL1        0.0000
      7 C           8.7919    8.4624    2.2528 C.ar    1  UNL1        0.0000
      8 C           7.7301    8.8406    1.4478 C.ar    1  UNL1        0.0000
      9 C           6.7538   11.7081   -0.6415 C.3     1  UNL1        0.0000
     10 C           4.9579    9.4024   -0.5236 C.3     1  UNL1        0.0000
     11 C           7.4654   13.7558    2.3840 C.3     1  UNL1        0.0000
     12 C           6.2627   12.8033    4.8910 C.3     1  UNL1        0.0000
     13 H           8.7513   11.0412    4.4296 H       1  UNL1        0.0000
     14 H          10.0040    8.9749    3.9409 H       1  UNL1        0.0000
     15 H           9.3367    7.5518    2.0427 H       1  UNL1        0.0000
     16 H           7.4501    8.2252    0.6048 H       1  UNL1        0.0000
     17 H           6.1701   12.1184   -1.4581 H       1  UNL1        0.0000
     18 H           7.4769   11.0234   -1.0729 H       1  UNL1        0.0000
     19 H           7.3155   12.5104   -0.1829 H       1  UNL1        0.0000
     20 H           4.6864    8.4970    0.0044 H       1  UNL1        0.0000
     21 H           5.7151    9.1341   -1.2530 H       1  UNL1        0.0000
     22 H           4.0952    9.7538   -1.0803 H       1  UNL1        0.0000
     23 H           8.5043   13.4710    2.5094 H       1  UNL1        0.0000
     24 H           7.3097   14.6701    2.9459 H       1  UNL1        0.0000
     25 H           7.3167   13.9814    1.3367 H       1  UNL1        0.0000
     26 H           5.6729   13.6985    5.0522 H       1  UNL1        0.0000
     27 H           7.2666   13.0123    5.2447 H       1  UNL1        0.0000
     28 H           5.8489   12.0177    5.5102 H       1  UNL1        0.0000
@<TRIPOS>BOND
     1    17     9    1
     2    21    10    1
     3    22    10    1
     4    18     9    1
     5     9    19    1
     6     9     1    1
     7    10    20    1
     8    10     1    1
     9    16     8    1
    10     1     3    1
    11    25    11    1
    12     8     3   ar
    13     8     7   ar
    14     3     4   ar
    15    15     7    1
    16     7     6   ar
    17    11    23    1
    18    11    24    1
    19    11     2    1
    20     4     2    1
    21     4     5   ar
    22     2    12    1
    23     6     5   ar
    24     6    14    1
    25     5    13    1
    26    12    26    1
    27    12    27    1
    28    12    28    1
