@<TRIPOS>MOLECULE
1,2
 28 28 0 0 0
SMALL
GASTEIGER

@<TRIPOS>ATOM
      1 SI          2.6333   -4.5452    2.4789 Si      1  UNL1        0.0000
      2 SI         -0.0822   -3.5394    2.0801 Si      1  UNL1        0.0000
      3 C           2.5203   -3.1263    1.2221 C.ar    1  UNL1        0.0000
      4 C           1.2235   -2.6395    1.0370 C.ar    1  UNL1        0.0000
      5 C           1.0051   -1.5984    0.1510 C.ar    1  UNL1        0.0000
      6 C           2.0609   -1.0283   -0.5430 C.ar    1  UNL1        0.0000
      7 C           3.3449   -1.5116   -0.3612 C.ar    1  UNL1        0.0000
      8 C           3.5685   -2.5620    0.5150 C.ar    1  UNL1        0.0000
      9 C           2.7581   -6.1643    1.4505 C.3     1  UNL1        0.0000
     10 C           4.2287   -4.4434    3.5367 C.3     1  UNL1        0.0000
     11 C          -0.9125   -4.7902    0.8831 C.3     1  UNL1        0.0000
     12 C          -1.4551   -2.3602    2.7114 C.3     1  UNL1        0.0000
     13 H           0.0029   -1.2197    0.0058 H       1  UNL1        0.0000
     14 H           1.8838   -0.2067   -1.2234 H       1  UNL1        0.0000
     15 H           4.1708   -1.0678   -0.9000 H       1  UNL1        0.0000
     16 H           4.5726   -2.9379    0.6545 H       1  UNL1        0.0000
     17 H           3.2448   -6.9528    2.0118 H       1  UNL1        0.0000
     18 H           3.3352   -6.0016    0.5474 H       1  UNL1        0.0000
     19 H           1.7792   -6.5189    1.1533 H       1  UNL1        0.0000
     20 H           4.2110   -3.5623    4.1665 H       1  UNL1        0.0000
     21 H           5.1232   -4.4017    2.9257 H       1  UNL1        0.0000
     22 H           4.3123   -5.3111    4.1813 H       1  UNL1        0.0000
     23 H          -0.2066   -5.5471    0.5645 H       1  UNL1        0.0000
     24 H          -1.2700   -4.2844   -0.0070 H       1  UNL1        0.0000
     25 H          -1.7597   -5.2878    1.3389 H       1  UNL1        0.0000
     26 H          -2.2336   -2.9188    3.2184 H       1  UNL1        0.0000
     27 H          -1.9215   -1.8042    1.9062 H       1  UNL1        0.0000
     28 H          -1.0452   -1.6480    3.4172 H       1  UNL1        0.0000
@<TRIPOS>BOND
     1    14     6    1
     2    15     7    1
     3     6     7   ar
     4     6     5   ar
     5     7     8   ar
     6    24    11    1
     7    13     5    1
     8     5     4   ar
     9     8    16    1
    10     8     3   ar
    11    18     9    1
    12    23    11    1
    13    11    25    1
    14    11     2    1
    15     4     3   ar
    16     4     2    1
    17    19     9    1
    18     3     1    1
    19     9    17    1
    20     9     1    1
    21    27    12    1
    22     2    12    1
    23     1    10    1
    24    12    26    1
    25    12    28    1
    26    21    10    1
    27    10    20    1
    28    10    22    1
