@<TRIPOS>MOLECULE
1,2
 19 18 0 0 0
SMALL
GASTEIGER

@<TRIPOS>ATOM
      1 SI         -1.1624   -0.7503   17.6241 Si      1  UNL1        0.0000
      2 SI         -1.6146    1.2274   15.3605 Si      1  UNL1        0.0000
      3 S          -2.9390    0.2188   16.7851 S.3     1  UNL1        0.0000
      4 C          -1.5457   -2.6285   17.6502 C.3     1  UNL1        0.0000
      5 C          -1.1818   -0.3612   19.5014 C.3     1  UNL1        0.0000
      6 C          -1.9799    3.1012   15.5388 C.3     1  UNL1        0.0000
      7 C          -2.3428    0.8909   13.6196 C.3     1  UNL1        0.0000
      8 H          -2.4676   -2.7903   18.1992 H       1  UNL1        0.0000
      9 H          -0.7615   -3.1807   18.1579 H       1  UNL1        0.0000
     10 H          -1.6807   -3.0540   16.6619 H       1  UNL1        0.0000
     11 H          -2.1353   -0.6743   19.9140 H       1  UNL1        0.0000
     12 H          -1.0654    0.6938   19.7245 H       1  UNL1        0.0000
     13 H          -0.4040   -0.9096   20.0225 H       1  UNL1        0.0000
     14 H          -1.7093    3.5029   16.5092 H       1  UNL1        0.0000
     15 H          -3.0450    3.2632   15.4088 H       1  UNL1        0.0000
     16 H          -1.4657    3.6749   14.7746 H       1  UNL1        0.0000
     17 H          -2.3350   -0.1584   13.3450 H       1  UNL1        0.0000
     18 H          -1.8081    1.4493   12.8580 H       1  UNL1        0.0000
     19 H          -3.3764    1.2210   13.6021 H       1  UNL1        0.0000
@<TRIPOS>BOND
     1    18     7    1
     2    17     7    1
     3    19     7    1
     4     7     2    1
     5    16     6    1
     6     2     6    1
     7     2     3    1
     8    15     6    1
     9     6    14    1
    10    10     4    1
    11     3     1    1
    12     1     4    1
    13     1     5    1
    14     4     9    1
    15     4     8    1
    16     5    12    1
    17     5    11    1
    18     5    13    1
