@<TRIPOS>MOLECULE
1,2
 22 21 0 0 0
SMALL
GASTEIGER

@<TRIPOS>ATOM
      1 SI          3.7872   -0.6663    5.9941 Si      1  UNL1        0.0000
      2 SI          5.4260    0.3488    3.6383 Si      1  UNL1        0.0000
      3 F           2.6979   -1.8756    5.9726 F       1  UNL1        0.0000
      4 F           3.4836   -0.1808    7.5203 F       1  UNL1        0.0000
      5 F           5.5740   -0.2688    2.1336 F       1  UNL1        0.0000
      6 F           6.5357    1.5309    3.4389 F       1  UNL1        0.0000
      7 C           5.5553   -1.3512    5.8512 C.2     1  UNL1        0.0000
      8 C           6.2343   -0.8985    4.7942 C.2     1  UNL1        0.0000
      9 C           6.1327   -2.2799    6.8982 C.3     1  UNL1        0.0000
     10 C           7.3528   -3.0509    6.3849 C.3     1  UNL1        0.0000
     11 C           6.5516   -1.4101    8.0921 C.3     1  UNL1        0.0000
     12 C           5.0716   -3.2853    7.3522 C.3     1  UNL1        0.0000
     13 H           7.2474   -1.2195    4.6028 H       1  UNL1        0.0000
     14 H           7.6717   -3.7721    7.1342 H       1  UNL1        0.0000
     15 H           8.1874   -2.3828    6.1881 H       1  UNL1        0.0000
     16 H           7.1087   -3.5883    5.4714 H       1  UNL1        0.0000
     17 H           6.9760   -2.0333    8.8762 H       1  UNL1        0.0000
     18 H           5.6951   -0.8791    8.4974 H       1  UNL1        0.0000
     19 H           7.2973   -0.6797    7.7850 H       1  UNL1        0.0000
     20 H           4.7054   -3.8598    6.5046 H       1  UNL1        0.0000
     21 H           5.4946   -3.9733    8.0811 H       1  UNL1        0.0000
     22 H           4.2290   -2.7781    7.8129 H       1  UNL1        0.0000
@<TRIPOS>BOND
     1     5     2    1
     2     6     2    1
     3     2     8    1
     4    13     8    1
     5     8     7    2
     6    16    10    1
     7     7     1    1
     8     7     9    1
     9     3     1    1
    10     1     4    1
    11    15    10    1
    12    10     9    1
    13    10    14    1
    14    20    12    1
    15     9    12    1
    16     9    11    1
    17    12    22    1
    18    12    21    1
    19    19    11    1
    20    11    18    1
    21    11    17    1
