@<TRIPOS>MOLECULE
1,2
 24 23 0 0 0
SMALL
GASTEIGER

@<TRIPOS>ATOM
      1 SI          3.4504    5.9665    4.6141 Si      1  UNL1        0.0000
      2 SI          6.6817    5.2133    5.2906 Si      1  UNL1        0.0000
      3 C           4.8369    7.3148    4.5947 C.3     1  UNL1        0.0000
      4 C           6.2025    6.7481    4.2220 C.3     1  UNL1        0.0000
      5 C           2.0364    6.7760    5.6508 C.3     1  UNL1        0.0000
      6 C           2.7035    5.9511    2.8377 C.3     1  UNL1        0.0000
      7 C           8.0767    4.3437    4.2747 C.3     1  UNL1        0.0000
      8 C           7.6561    5.8930    6.8116 C.3     1  UNL1        0.0000
      9 H           4.9043    7.7707    5.5841 H       1  UNL1        0.0000
     10 H           4.5675    8.1150    3.9028 H       1  UNL1        0.0000
     11 H           6.9641    7.5250    4.3146 H       1  UNL1        0.0000
     12 H           6.1836    6.4552    3.1709 H       1  UNL1        0.0000
     13 H           1.1255    6.1868    5.6063 H       1  UNL1        0.0000
     14 H           2.3067    6.8849    6.6968 H       1  UNL1        0.0000
     15 H           1.8063    7.7640    5.2646 H       1  UNL1        0.0000
     16 H           1.9088    5.2192    2.7335 H       1  UNL1        0.0000
     17 H           2.2841    6.9270    2.6133 H       1  UNL1        0.0000
     18 H           3.4525    5.7291    2.0852 H       1  UNL1        0.0000
     19 H           8.5737    3.5734    4.8572 H       1  UNL1        0.0000
     20 H           8.8320    5.0656    3.9798 H       1  UNL1        0.0000
     21 H           7.6940    3.8795    3.3707 H       1  UNL1        0.0000
     22 H           7.9812    5.1002    7.4784 H       1  UNL1        0.0000
     23 H           8.5450    6.4130    6.4679 H       1  UNL1        0.0000
     24 H           7.0626    6.5968    7.3849 H       1  UNL1        0.0000
@<TRIPOS>BOND
     1    18     6    1
     2    17     6    1
     3    16     6    1
     4     6     1    1
     5    12     4    1
     6    21     7    1
     7    10     3    1
     8    20     7    1
     9     4    11    1
    10     4     3    1
    11     4     2    1
    12     7    19    1
    13     7     2    1
    14     3     1    1
    15     3     9    1
    16     1     5    1
    17    15     5    1
    18     2     8    1
    19    13     5    1
    20     5    14    1
    21    23     8    1
    22     8    24    1
    23     8    22    1
