@<TRIPOS>MOLECULE
1,2
 24 23 0 0 0
SMALL
GASTEIGER

@<TRIPOS>ATOM
      1 SI         11.6912   -1.6522   13.3062 Si      1  UNL1        0.0000
      2 SI         12.5607   -1.0556   16.4949 Si      1  UNL1        0.0000
      3 C          11.6675   -3.0540   14.6354 C.3     1  UNL1        0.0000
      4 C          12.7094   -2.8175   15.7241 C.3     1  UNL1        0.0000
      5 C          10.1408   -1.9546   12.1983 C.3     1  UNL1        0.0000
      6 C          13.1001   -2.1832   12.0940 C.3     1  UNL1        0.0000
      7 C          11.2424   -1.2281   17.8964 C.3     1  UNL1        0.0000
      8 C          14.1908   -0.7587   17.4787 C.3     1  UNL1        0.0000
      9 H          11.8379   -4.0241   14.1643 H       1  UNL1        0.0000
     10 H          10.6802   -3.1022   15.0977 H       1  UNL1        0.0000
     11 H          12.6142   -3.5784   16.5012 H       1  UNL1        0.0000
     12 H          13.7033   -2.9392   15.2906 H       1  UNL1        0.0000
     13 H          10.1570   -1.3173   11.3208 H       1  UNL1        0.0000
     14 H           9.2019   -1.7849   12.7115 H       1  UNL1        0.0000
     15 H          10.1423   -2.9840   11.8553 H       1  UNL1        0.0000
     16 H          13.2542   -1.4567   11.3013 H       1  UNL1        0.0000
     17 H          14.0420   -2.3197   12.6152 H       1  UNL1        0.0000
     18 H          12.8457   -3.1281   11.6228 H       1  UNL1        0.0000
     19 H          10.2890   -1.5717   17.5067 H       1  UNL1        0.0000
     20 H          11.5754   -1.9503   18.6359 H       1  UNL1        0.0000
     21 H          11.0712   -0.2880   18.4127 H       1  UNL1        0.0000
     22 H          15.0619   -0.7125   16.8337 H       1  UNL1        0.0000
     23 H          14.3489   -1.5670   18.1851 H       1  UNL1        0.0000
     24 H          14.1455    0.1670   18.0428 H       1  UNL1        0.0000
@<TRIPOS>BOND
     1    16     6    1
     2    13     5    1
     3    18     6    1
     4    15     5    1
     5     6    17    1
     6     6     1    1
     7     5    14    1
     8     5     1    1
     9     1     3    1
    10     9     3    1
    11     3    10    1
    12     3     4    1
    13    12     4    1
    14     4     2    1
    15     4    11    1
    16     2     8    1
    17     2     7    1
    18    22     8    1
    19     8    24    1
    20     8    23    1
    21    19     7    1
    22     7    21    1
    23     7    20    1
