@<TRIPOS>MOLECULE
1,2
 29 28 0 0 0
SMALL
GASTEIGER

@<TRIPOS>ATOM
      1 SI         15.7691    1.3956   17.2132 Si      1  UNL1        0.0000
      2 SI         15.9268    2.4966   13.6256 Si      1  UNL1        0.0000
      3 SI         16.7652    4.0860   16.1100 Si      1  UNL1        0.0000
      4 O          16.8351    3.4623   14.6163 O.3     1  UNL1        0.0000
      5 O          16.0251    3.0255   17.0850 O.3     1  UNL1        0.0000
      6 C          17.3188    0.8953   18.2591 C.3     1  UNL1        0.0000
      7 C          14.3817    1.3752   18.5564 C.3     1  UNL1        0.0000
      8 C          14.8262    3.8431   12.7749 C.3     1  UNL1        0.0000
      9 C          17.2039    2.1245   12.2264 C.3     1  UNL1        0.0000
     10 C          15.7112    5.6667   16.1482 C.3     1  UNL1        0.0000
     11 C          18.5602    4.3765   16.6541 C.3     1  UNL1        0.0000
     12 H          14.2252    3.4710   11.9525 H       1  UNL1        0.0000
     13 H          15.4998    4.5923   12.3697 H       1  UNL1        0.0000
     14 H          14.1790    4.3517   13.4822 H       1  UNL1        0.0000
     15 H          16.7138    1.7171   11.3472 H       1  UNL1        0.0000
     16 H          17.9658    1.4146   12.5331 H       1  UNL1        0.0000
     17 H          17.7088    3.0386   11.9304 H       1  UNL1        0.0000
     18 H          17.2784   -0.1148   18.6527 H       1  UNL1        0.0000
     19 H          17.3624    1.5725   19.1068 H       1  UNL1        0.0000
     20 H          18.2449    1.0203   17.7070 H       1  UNL1        0.0000
     21 H          14.2712    0.3884   18.9956 H       1  UNL1        0.0000
     22 H          14.6308    2.0668   19.3551 H       1  UNL1        0.0000
     23 H          13.4141    1.6670   18.1598 H       1  UNL1        0.0000
     24 H          15.8423    6.1999   17.0836 H       1  UNL1        0.0000
     25 H          15.9942    6.3369   15.3435 H       1  UNL1        0.0000
     26 H          14.6536    5.4443   16.0437 H       1  UNL1        0.0000
     27 H          18.6000    4.6500   17.7030 H       1  UNL1        0.0000
     28 H          19.1708    3.4898   16.5167 H       1  UNL1        0.0000
     29 H          19.0135    5.1806   16.0850 H       1  UNL1        0.0000
@<TRIPOS>BOND
     1    15     9    1
     2    17     9    1
     3    12     8    1
     4     9    16    1
     5     9     2    1
     6    13     8    1
     7     8    14    1
     8     8     2    1
     9     2     4    1
    10     4     3    1
    11    25    10    1
    12    26    10    1
    13    29    11    1
    14     3    10    1
    15     3    11    1
    16     3     5    1
    17    10    24    1
    18    28    11    1
    19    11    27    1
    20     5     1    1
    21     1     6    1
    22     1     7    1
    23    20     6    1
    24    23     7    1
    25     6    18    1
    26     6    19    1
    27     7    21    1
    28     7    22    1
