@<TRIPOS>MOLECULE
1,2
 19 18 0 0 0
SMALL
GASTEIGER

@<TRIPOS>ATOM
      1 SI          4.8751    6.2661    1.3722 Si      1  UNL1        0.0000
      2 SI          4.9153    4.0043   -0.8427 Si      1  UNL1        0.0000
      3 SE          6.6736    5.0290    0.4057 Se      1  UNL1        0.0000
      4 C           5.1651    6.1504    3.2726 C.3     1  UNL1        0.0000
      5 C           5.3302    8.1106    1.0513 C.3     1  UNL1        0.0000
      6 C           5.2385    2.1127   -0.6806 C.3     1  UNL1        0.0000
      7 C           5.4011    4.2952   -2.6843 C.3     1  UNL1        0.0000
      8 H           5.1049    5.1318    3.6403 H       1  UNL1        0.0000
      9 H           6.1618    6.5161    3.4971 H       1  UNL1        0.0000
     10 H           4.4558    6.7607    3.8232 H       1  UNL1        0.0000
     11 H           5.2965    8.3760    0.0004 H       1  UNL1        0.0000
     12 H           4.6750    8.7824    1.5969 H       1  UNL1        0.0000
     13 H           6.3444    8.2848    1.3960 H       1  UNL1        0.0000
     14 H           5.1665    1.7658    0.3444 H       1  UNL1        0.0000
     15 H           4.5504    1.5362   -1.2912 H       1  UNL1        0.0000
     16 H           6.2455    1.8987   -1.0238 H       1  UNL1        0.0000
     17 H           5.3537    5.3396   -2.9725 H       1  UNL1        0.0000
     18 H           6.4244    3.9656   -2.8320 H       1  UNL1        0.0000
     19 H           4.7687    3.7238   -3.3566 H       1  UNL1        0.0000
@<TRIPOS>BOND
     1    19     7    1
     2    17     7    1
     3    18     7    1
     4     7     2    1
     5    15     6    1
     6    16     6    1
     7     2     6    1
     8     2     3    1
     9     6    14    1
    10    11     5    1
    11     3     1    1
    12     5     1    1
    13     5    13    1
    14     5    12    1
    15     1     4    1
    16     4     9    1
    17     4     8    1
    18     4    10    1
