@<TRIPOS>MOLECULE
3,11
 19 18 0 0 0
SMALL
GASTEIGER

@<TRIPOS>ATOM
      1 C           3.0146    1.0309   -1.3878 C.3     1  UNL1        0.0000
      2 C           0.2244    1.0305   -2.4303 C.3     1  UNL1        0.0000
      3 SI          1.4183    2.0982   -1.3711 Si      1  UNL1        0.0000
      4 O           1.7550    3.4692   -2.2721 O.3     1  UNL1        0.0000
      5 H           3.2996    0.8290   -2.4148 H       1  UNL1        0.0000
      6 H           3.8593    1.5059   -0.9027 H       1  UNL1        0.0000
      7 H           2.8409    0.0761   -0.9037 H       1  UNL1        0.0000
      8 H          -0.7335    1.5030   -2.6139 H       1  UNL1        0.0000
      9 H           0.0425    0.0738   -1.9531 H       1  UNL1        0.0000
     10 H           0.6808    0.8329   -3.3944 H       1  UNL1        0.0000
     11 SI          1.4183    4.8403   -1.3712 Si      1  UNL1        0.0000
     12 C           3.0146    5.9076   -1.3878 C.3     1  UNL1        0.0000
     13 C           0.2244    5.9079   -2.4304 C.3     1  UNL1        0.0000
     14 H           3.2995    6.1097   -2.4148 H       1  UNL1        0.0000
     15 H           3.8593    5.4326   -0.9028 H       1  UNL1        0.0000
     16 H           2.8409    6.8623   -0.9035 H       1  UNL1        0.0000
     17 H          -0.7335    5.4354   -2.6140 H       1  UNL1        0.0000
     18 H           0.0424    6.8647   -1.9531 H       1  UNL1        0.0000
     19 H           0.6808    6.1056   -3.3945 H       1  UNL1        0.0000
@<TRIPOS>BOND
     1    19    13    1
     2    10     2    1
     3    17    13    1
     4     8     2    1
     5    13    18    1
     6    13    11    1
     7     2     9    1
     8     2     3    1
     9     5     1    1
    10    14    12    1
    11     4    11    1
    12     4     3    1
    13     1     3    1
    14     1     7    1
    15     1     6    1
    16    12    11    1
    17    12    16    1
    18    12    15    1
