@<TRIPOS>MOLECULE
1,2
 46 48 0 0 0
SMALL
GASTEIGER

@<TRIPOS>ATOM
      1 SI         12.2306    3.3911    3.6441 Si      1  UNL1        0.0000
      2 SI         11.1701   -0.1792    3.7656 Si      1  UNL1        0.0000
      3 O           9.8933    2.1044    2.6337 O.3     1  UNL1        0.0000
      4 C          11.1542    3.6744    5.2230 C.3     1  UNL1        0.0000
      5 C          13.6091    4.7390    3.8432 C.3     1  UNL1        0.0000
      6 C          10.1380    0.2751    5.3343 C.3     1  UNL1        0.0000
      7 C          11.5930   -2.0441    4.0819 C.3     1  UNL1        0.0000
      8 C          11.1095    4.0530    2.2347 C.ar    1  UNL1        0.0000
      9 C          11.2984    5.2152    1.5037 C.ar    1  UNL1        0.0000
     10 C          10.4419    5.5387    0.4657 C.ar    1  UNL1        0.0000
     11 C           9.3800    4.7116    0.1410 C.ar    1  UNL1        0.0000
     12 C           9.1445    3.5465    0.8578 C.ar    1  UNL1        0.0000
     13 C          10.0219    3.2528    1.8960 C.ar    1  UNL1        0.0000
     14 C           9.8483   -0.2121    2.3753 C.ar    1  UNL1        0.0000
     15 C           9.3645   -1.3321    1.7180 C.ar    1  UNL1        0.0000
     16 C           8.4529   -1.2005    0.6848 C.ar    1  UNL1        0.0000
     17 C           8.0042    0.0493    0.2923 C.ar    1  UNL1        0.0000
     18 C           8.4506    1.1962    0.9342 C.ar    1  UNL1        0.0000
     19 C           9.3644    1.0284    1.9689 C.ar    1  UNL1        0.0000
     20 C           7.9726    2.6063    0.6311 C.3     1  UNL1        0.0000
     21 C           6.8823    2.9617    1.6622 C.3     1  UNL1        0.0000
     22 C           7.3891    2.7330   -0.7755 C.3     1  UNL1        0.0000
     23 H          11.5952    3.2334    6.1113 H       1  UNL1        0.0000
     24 H          11.0481    4.7408    5.3999 H       1  UNL1        0.0000
     25 H          10.1604    3.2612    5.1023 H       1  UNL1        0.0000
     26 H          14.2995    4.4718    4.6388 H       1  UNL1        0.0000
     27 H          14.1921    4.8770    2.9371 H       1  UNL1        0.0000
     28 H          13.1727    5.6983    4.1025 H       1  UNL1        0.0000
     29 H          10.7621    0.4842    6.1972 H       1  UNL1        0.0000
     30 H           9.5121    1.1409    5.1563 H       1  UNL1        0.0000
     31 H           9.4863   -0.5552    5.5896 H       1  UNL1        0.0000
     32 H          10.7067   -2.5914    4.3873 H       1  UNL1        0.0000
     33 H          11.9965   -2.5366    3.2017 H       1  UNL1        0.0000
     34 H          12.3259   -2.1446    4.8779 H       1  UNL1        0.0000
     35 H          12.1280    5.8628    1.7397 H       1  UNL1        0.0000
     36 H          10.6023    6.4435   -0.1023 H       1  UNL1        0.0000
     37 H           8.7346    4.9881   -0.6772 H       1  UNL1        0.0000
     38 H           9.7136   -2.3107    2.0075 H       1  UNL1        0.0000
     39 H           8.0877   -2.0795    0.1741 H       1  UNL1        0.0000
     40 H           7.2986    0.1188   -0.5199 H       1  UNL1        0.0000
     41 H           7.2707    2.8792    2.6750 H       1  UNL1        0.0000
     42 H           6.5390    3.9827    1.5067 H       1  UNL1        0.0000
     43 H           6.0366    2.2844    1.5609 H       1  UNL1        0.0000
     44 H           7.0320    3.7450   -0.9468 H       1  UNL1        0.0000
     45 H           8.1370    2.4886   -1.5266 H       1  UNL1        0.0000
     46 H           6.5378    2.0677   -0.8930 H       1  UNL1        0.0000
@<TRIPOS>BOND
     1    45    22    1
     2    44    22    1
     3    46    22    1
     4    22    20    1
     5    37    11    1
     6    40    17    1
     7    36    10    1
     8    11    10   ar
     9    11    12   ar
    10    39    16    1
    11    17    16   ar
    12    17    18   ar
    13    10     9   ar
    14    20    12    1
    15    20    18    1
    16    20    21    1
    17    16    15   ar
    18    12    13   ar
    19    18    19   ar
    20     9    35    1
    21     9     8   ar
    22    42    21    1
    23    43    21    1
    24    21    41    1
    25    15    38    1
    26    15    14   ar
    27    13     8   ar
    28    13     3    1
    29    19    14   ar
    30    19     3    1
    31     8     1    1
    32    14     2    1
    33    27     5    1
    34    33     7    1
    35     1     5    1
    36     1     4    1
    37     2     7    1
    38     2     6    1
    39     5    28    1
    40     5    26    1
    41     7    32    1
    42     7    34    1
    43    25     4    1
    44    30     6    1
    45     4    24    1
    46     4    23    1
    47     6    31    1
    48     6    29    1
