@<TRIPOS>MOLECULE
1,2
 46 48 0 0 0
SMALL
GASTEIGER

@<TRIPOS>ATOM
      1 SI          5.4850    2.4750   13.0360 Si      1  UNL1        0.0000
      2 SI          2.1017    1.3499   12.6618 Si      1  UNL1        0.0000
      3 O           3.4052    2.4309   14.9393 O.3     1  UNL1        0.0000
      4 C           4.9041    4.2776   12.6691 C.3     1  UNL1        0.0000
      5 C           7.2755    2.4271   12.2902 C.3     1  UNL1        0.0000
      6 C           1.5443    3.1460   12.2350 C.3     1  UNL1        0.0000
      7 C           0.9017    0.2383   11.6183 C.3     1  UNL1        0.0000
      8 C           5.7308    2.4636   14.9442 C.ar    1  UNL1        0.0000
      9 C           6.9227    2.4192   15.6484 C.ar    1  UNL1        0.0000
     10 C           6.9227    2.2982   17.0286 C.ar    1  UNL1        0.0000
     11 C           5.7322    2.2242   17.7326 C.ar    1  UNL1        0.0000
     12 C           4.5139    2.2855   17.0686 C.ar    1  UNL1        0.0000
     13 C           4.5529    2.4107   15.6833 C.ar    1  UNL1        0.0000
     14 C           1.5378    1.1177   14.4883 C.ar    1  UNL1        0.0000
     15 C           0.4722    0.3618   14.9497 C.ar    1  UNL1        0.0000
     16 C           0.2677    0.1852   16.3085 C.ar    1  UNL1        0.0000
     17 C           1.1224    0.7620   17.2334 C.ar    1  UNL1        0.0000
     18 C           2.1900    1.5454   16.8157 C.ar    1  UNL1        0.0000
     19 C           2.3599    1.7074   15.4438 C.ar    1  UNL1        0.0000
     20 C           3.1493    2.2802   17.7386 C.3     1  UNL1        0.0000
     21 C           3.1897    1.6741   19.1412 C.3     1  UNL1        0.0000
     22 C           2.6729    3.7431   17.8376 C.3     1  UNL1        0.0000
     23 H           5.7120    4.9795   12.8507 H       1  UNL1        0.0000
     24 H           4.5917    4.3825   11.6365 H       1  UNL1        0.0000
     25 H           4.0710    4.5567   13.3010 H       1  UNL1        0.0000
     26 H           7.8829    1.6243   12.6939 H       1  UNL1        0.0000
     27 H           7.2281    2.2960   11.2138 H       1  UNL1        0.0000
     28 H           7.7955    3.3595   12.4827 H       1  UNL1        0.0000
     29 H           1.9066    3.8539   12.9691 H       1  UNL1        0.0000
     30 H           1.9197    3.4482   11.2641 H       1  UNL1        0.0000
     31 H           0.4610    3.2100   12.2136 H       1  UNL1        0.0000
     32 H          -0.1031    0.6471   11.6238 H       1  UNL1        0.0000
     33 H           1.2324    0.1990   10.5852 H       1  UNL1        0.0000
     34 H           0.8425   -0.7813   11.9860 H       1  UNL1        0.0000
     35 H           7.8584    2.4688   15.1122 H       1  UNL1        0.0000
     36 H           7.8590    2.2575   17.5670 H       1  UNL1        0.0000
     37 H           5.7654    2.1234   18.8059 H       1  UNL1        0.0000
     38 H          -0.1948   -0.1037   14.2401 H       1  UNL1        0.0000
     39 H          -0.5633   -0.4121   16.6562 H       1  UNL1        0.0000
     40 H           0.9425    0.5981   18.2841 H       1  UNL1        0.0000
     41 H           2.2047    1.7152   19.5989 H       1  UNL1        0.0000
     42 H           3.5209    0.6378   19.1085 H       1  UNL1        0.0000
     43 H           3.8645    2.2403   19.7778 H       1  UNL1        0.0000
     44 H           3.3565    4.3181   18.4594 H       1  UNL1        0.0000
     45 H           2.6360    4.2000   16.8511 H       1  UNL1        0.0000
     46 H           1.6770    3.7837   18.2747 H       1  UNL1        0.0000
@<TRIPOS>BOND
     1    33     7    1
     2    27     5    1
     3    30     6    1
     4     7    32    1
     5     7    34    1
     6     7     2    1
     7    24     4    1
     8    31     6    1
     9     6     2    1
    10     6    29    1
    11     5    28    1
    12     5    26    1
    13     5     1    1
    14     2    14    1
    15     4    23    1
    16     4     1    1
    17     4    25    1
    18     1     8    1
    19    38    15    1
    20    14    15   ar
    21    14    19   ar
    22     3    19    1
    23     3    13    1
    24     8     9   ar
    25     8    13   ar
    26    15    16   ar
    27    35     9    1
    28    19    18   ar
    29     9    10   ar
    30    13    12   ar
    31    16    39    1
    32    16    17   ar
    33    18    17   ar
    34    18    20    1
    35    45    22    1
    36    10    36    1
    37    10    11   ar
    38    12    11   ar
    39    12    20    1
    40    17    40    1
    41    11    37    1
    42    20    22    1
    43    20    21    1
    44    22    46    1
    45    22    44    1
    46    42    21    1
    47    21    41    1
    48    21    43    1
