@<TRIPOS>MOLECULE
1,2
 28 28 0 0 0
SMALL
GASTEIGER

@<TRIPOS>ATOM
      1 SI         13.8244   14.2514    4.7406 Si      1  UNL1        0.0000
      2 SI         15.3744   16.1591    3.2111 Si      1  UNL1        0.0000
      3 C          15.4749   13.5663    4.1079 C.ar    1  UNL1        0.0000
      4 C          15.9662   12.2924    4.3335 C.ar    1  UNL1        0.0000
      5 C          17.2123   11.9270    3.8507 C.ar    1  UNL1        0.0000
      6 C          17.9794   12.8445    3.1528 C.ar    1  UNL1        0.0000
      7 C          17.4953   14.1237    2.9346 C.ar    1  UNL1        0.0000
      8 C          16.2430   14.4874    3.4005 C.ar    1  UNL1        0.0000
      9 C          14.2049   14.7563    6.5554 C.3     1  UNL1        0.0000
     10 C          12.5895   12.7820    4.7431 C.3     1  UNL1        0.0000
     11 C          16.3737   17.3612    4.3380 C.3     1  UNL1        0.0000
     12 C          15.6927   16.7414    1.3973 C.3     1  UNL1        0.0000
     13 H          15.3736   11.5757    4.8834 H       1  UNL1        0.0000
     14 H          17.5873   10.9270    4.0186 H       1  UNL1        0.0000
     15 H          18.9529   12.5602    2.7778 H       1  UNL1        0.0000
     16 H          18.0982   14.8398    2.3933 H       1  UNL1        0.0000
     17 H          14.9089   15.5793    6.5977 H       1  UNL1        0.0000
     18 H          14.6413   13.9241    7.0973 H       1  UNL1        0.0000
     19 H          13.3051   15.0562    7.0775 H       1  UNL1        0.0000
     20 H          12.9395   11.9730    5.3756 H       1  UNL1        0.0000
     21 H          12.4551   12.3839    3.7434 H       1  UNL1        0.0000
     22 H          11.6204   13.0900    5.1142 H       1  UNL1        0.0000
     23 H          16.3803   17.0151    5.3649 H       1  UNL1        0.0000
     24 H          15.9870   18.3735    4.3251 H       1  UNL1        0.0000
     25 H          17.4048   17.3979    4.0032 H       1  UNL1        0.0000
     26 H          14.9126   16.3859    0.7307 H       1  UNL1        0.0000
     27 H          16.6339   16.3503    1.0272 H       1  UNL1        0.0000
     28 H          15.7354   17.8215    1.3162 H       1  UNL1        0.0000
@<TRIPOS>BOND
     1    26    12    1
     2    27    12    1
     3    28    12    1
     4    12     2    1
     5    16     7    1
     6    15     6    1
     7     7     6   ar
     8     7     8   ar
     9     6     5   ar
    10     2     8    1
    11     2    11    1
    12     8     3   ar
    13    21    10    1
    14     5    14    1
    15     5     4   ar
    16    25    11    1
    17     3     4   ar
    18     3     1    1
    19    24    11    1
    20     4    13    1
    21    11    23    1
    22     1    10    1
    23     1     9    1
    24    10    22    1
    25    10    20    1
    26     9    17    1
    27     9    19    1
    28     9    18    1
