@<TRIPOS>MOLECULE
1,2
 28 28 0 0 0
SMALL
GASTEIGER

@<TRIPOS>ATOM
      1 SI          1.7368    8.0386    1.4410 Si      1  UNL1        0.0000
      2 SI         -1.3516    7.9031    0.9662 Si      1  UNL1        0.0000
      3 C           1.0639    6.5067    0.5429 C.ar    1  UNL1        0.0000
      4 C           1.8700    5.4786    0.0797 C.ar    1  UNL1        0.0000
      5 C           1.3243    4.3941   -0.5847 C.ar    1  UNL1        0.0000
      6 C          -0.0437    4.3336   -0.7932 C.ar    1  UNL1        0.0000
      7 C          -0.8532    5.3585   -0.3354 C.ar    1  UNL1        0.0000
      8 C          -0.3125    6.4458    0.3329 C.ar    1  UNL1        0.0000
      9 C           2.8383    7.4064    2.8972 C.3     1  UNL1        0.0000
     10 C           3.0322    8.8571    0.2717 C.3     1  UNL1        0.0000
     11 C          -2.7838    7.1639    2.0320 C.3     1  UNL1        0.0000
     12 C          -2.2964    8.6227   -0.5520 C.3     1  UNL1        0.0000
     13 H           2.9381    5.5268    0.2380 H       1  UNL1        0.0000
     14 H           1.9619    3.5968   -0.9418 H       1  UNL1        0.0000
     15 H          -0.4752    3.4892   -1.3133 H       1  UNL1        0.0000
     16 H          -1.9201    5.3133   -0.5026 H       1  UNL1        0.0000
     17 H           3.4025    8.2192    3.3443 H       1  UNL1        0.0000
     18 H           3.5521    6.6727    2.5383 H       1  UNL1        0.0000
     19 H           2.2501    6.9318    3.6739 H       1  UNL1        0.0000
     20 H           3.3466    9.8238    0.6523 H       1  UNL1        0.0000
     21 H           2.6220    9.0068   -0.7199 H       1  UNL1        0.0000
     22 H           3.9155    8.2350    0.1724 H       1  UNL1        0.0000
     23 H          -3.2905    6.3744    1.4877 H       1  UNL1        0.0000
     24 H          -3.5238    7.9208    2.2736 H       1  UNL1        0.0000
     25 H          -2.4193    6.7353    2.9582 H       1  UNL1        0.0000
     26 H          -2.7806    9.5616   -0.3027 H       1  UNL1        0.0000
     27 H          -3.0609    7.9351   -0.8975 H       1  UNL1        0.0000
     28 H          -1.6203    8.8057   -1.3786 H       1  UNL1        0.0000
@<TRIPOS>BOND
     1    28    12    1
     2    15     6    1
     3    14     5    1
     4    27    12    1
     5     6     5   ar
     6     6     7   ar
     7    21    10    1
     8     5     4   ar
     9    12    26    1
    10    12     2    1
    11    16     7    1
    12     7     8   ar
    13     4    13    1
    14     4     3   ar
    15    22    10    1
    16    10    20    1
    17    10     1    1
    18     8     3   ar
    19     8     2    1
    20     3     1    1
    21     2    11    1
    22     1     9    1
    23    23    11    1
    24    11    24    1
    25    11    25    1
    26    18     9    1
    27     9    17    1
    28     9    19    1
