@<TRIPOS>MOLECULE
1,2
 28 28 0 0 0
SMALL
GASTEIGER

@<TRIPOS>ATOM
      1 SI         11.2751    3.9072    3.8060 Si      1  UNL1        0.0000
      2 SI          8.4797    2.5906    3.3577 Si      1  UNL1        0.0000
      3 C          10.8589    3.3460    2.0321 C.ar    1  UNL1        0.0000
      4 C          11.7390    3.4590    0.9650 C.ar    1  UNL1        0.0000
      5 C          11.3865    3.0108   -0.2958 C.ar    1  UNL1        0.0000
      6 C          10.1474    2.4261   -0.4951 C.ar    1  UNL1        0.0000
      7 C           9.2714    2.2942    0.5681 C.ar    1  UNL1        0.0000
      8 C           9.6112    2.7567    1.8317 C.ar    1  UNL1        0.0000
      9 C          12.5253    2.5998    4.4666 C.3     1  UNL1        0.0000
     10 C          12.3116    5.5218    3.5639 C.3     1  UNL1        0.0000
     11 C           8.5368    0.7257    3.8353 C.3     1  UNL1        0.0000
     12 C           6.6983    2.8703    2.6571 C.3     1  UNL1        0.0000
     13 H          12.7127    3.9031    1.1160 H       1  UNL1        0.0000
     14 H          12.0764    3.1138   -1.1220 H       1  UNL1        0.0000
     15 H           9.8673    2.0714   -1.4774 H       1  UNL1        0.0000
     16 H           8.3111    1.8252    0.4077 H       1  UNL1        0.0000
     17 H          12.0707    1.6156    4.5202 H       1  UNL1        0.0000
     18 H          13.3891    2.5286    3.8133 H       1  UNL1        0.0000
     19 H          12.8782    2.8564    5.4610 H       1  UNL1        0.0000
     20 H          11.6866    6.3424    3.2225 H       1  UNL1        0.0000
     21 H          12.7731    5.8326    4.4967 H       1  UNL1        0.0000
     22 H          13.1065    5.3900    2.8375 H       1  UNL1        0.0000
     23 H           8.2415    0.1045    2.9956 H       1  UNL1        0.0000
     24 H           9.5372    0.4264    4.1315 H       1  UNL1        0.0000
     25 H           7.8675    0.5098    4.6627 H       1  UNL1        0.0000
     26 H           6.5053    2.2594    1.7815 H       1  UNL1        0.0000
     27 H           5.9446    2.6212    3.3986 H       1  UNL1        0.0000
     28 H           6.5446    3.9082    2.3747 H       1  UNL1        0.0000
@<TRIPOS>BOND
     1    15     6    1
     2    14     5    1
     3     6     5   ar
     4     6     7   ar
     5     5     4   ar
     6    16     7    1
     7     7     8   ar
     8     4    13    1
     9     4     3   ar
    10    26    12    1
    11     8     3   ar
    12     8     2    1
    13     3     1    1
    14    28    12    1
    15    12     2    1
    16    12    27    1
    17    22    10    1
    18    23    11    1
    19    20    10    1
    20     2    11    1
    21    10     1    1
    22    10    21    1
    23     1     9    1
    24    18     9    1
    25    11    24    1
    26    11    25    1
    27     9    17    1
    28     9    19    1
