@<TRIPOS>MOLECULE
1,2
 28 28 0 0 0
SMALL
GASTEIGER

@<TRIPOS>ATOM
      1 SI          7.1010    4.3564    6.7479 Si      1  UNL1        0.0000
      2 SI          9.8965    5.6722    7.1967 Si      1  UNL1        0.0000
      3 C           7.5186    4.9136    8.5228 C.ar    1  UNL1        0.0000
      4 C           6.6395    4.7979    9.5904 C.ar    1  UNL1        0.0000
      5 C           6.9930    5.2435   10.8518 C.ar    1  UNL1        0.0000
      6 C           8.2321    5.8282   11.0513 C.ar    1  UNL1        0.0000
      7 C           9.1070    5.9627    9.9876 C.ar    1  UNL1        0.0000
      8 C           8.7662    5.5030    8.7233 C.ar    1  UNL1        0.0000
      9 C           5.8509    5.6657    6.0910 C.3     1  UNL1        0.0000
     10 C           6.0645    2.7413    6.9874 C.3     1  UNL1        0.0000
     11 C           9.8377    7.5377    6.7218 C.3     1  UNL1        0.0000
     12 C          11.6787    5.3931    7.8956 C.3     1  UNL1        0.0000
     13 H           5.6656    4.3544    9.4391 H       1  UNL1        0.0000
     14 H           6.3034    5.1394   11.6782 H       1  UNL1        0.0000
     15 H           8.5127    6.1813   12.0341 H       1  UNL1        0.0000
     16 H          10.0674    6.4315   10.1482 H       1  UNL1        0.0000
     17 H           6.3062    6.6496    6.0384 H       1  UNL1        0.0000
     18 H           4.9880    5.7365    6.7455 H       1  UNL1        0.0000
     19 H           5.4965    5.4109    5.0966 H       1  UNL1        0.0000
     20 H           6.6894    1.9199    7.3268 H       1  UNL1        0.0000
     21 H           5.6026    2.4325    6.0541 H       1  UNL1        0.0000
     22 H           5.2698    2.8716    7.7143 H       1  UNL1        0.0000
     23 H          10.1329    8.1582    7.5621 H       1  UNL1        0.0000
     24 H           8.8372    7.8369    6.4262 H       1  UNL1        0.0000
     25 H          10.5068    7.7550    5.8945 H       1  UNL1        0.0000
     26 H          11.8724    6.0038    8.7712 H       1  UNL1        0.0000
     27 H          12.4314    5.6429    7.1534 H       1  UNL1        0.0000
     28 H          11.8333    4.3552    8.1775 H       1  UNL1        0.0000
@<TRIPOS>BOND
     1    19     9    1
     2    25    11    1
     3    17     9    1
     4    21    10    1
     5     9    18    1
     6     9     1    1
     7    24    11    1
     8    11     2    1
     9    11    23    1
    10     1    10    1
    11     1     3    1
    12    10    20    1
    13    10    22    1
    14    27    12    1
    15     2    12    1
    16     2     8    1
    17    12    28    1
    18    12    26    1
    19     3     8   ar
    20     3     4   ar
    21     8     7   ar
    22    13     4    1
    23     4     5   ar
    24     7    16    1
    25     7     6   ar
    26     5     6   ar
    27     5    14    1
    28     6    15    1
