@<TRIPOS>MOLECULE
1,2
 28 28 0 0 0
SMALL
GASTEIGER

@<TRIPOS>ATOM
      1 SI          0.7516    2.3426   -0.7488 Si      1  UNL1        0.0000
      2 SI         -1.4409    1.6092    1.3990 Si      1  UNL1        0.0000
      3 C          -0.4234    3.7312   -0.1789 C.ar    1  UNL1        0.0000
      4 C          -0.3196    5.0404   -0.6289 C.ar    1  UNL1        0.0000
      5 C          -1.1770    6.0200   -0.1612 C.ar    1  UNL1        0.0000
      6 C          -2.1423    5.6973    0.7782 C.ar    1  UNL1        0.0000
      7 C          -2.2416    4.3980    1.2423 C.ar    1  UNL1        0.0000
      8 C          -1.3942    3.4067    0.7667 C.ar    1  UNL1        0.0000
      9 C           2.4720    2.8964   -0.0768 C.3     1  UNL1        0.0000
     10 C           0.8806    2.5519   -2.6674 C.3     1  UNL1        0.0000
     11 C          -0.8959    1.7641    3.2406 C.3     1  UNL1        0.0000
     12 C          -3.3175    1.1447    1.4741 C.3     1  UNL1        0.0000
     13 H           0.4406    5.3002   -1.3522 H       1  UNL1        0.0000
     14 H          -1.0919    7.0351   -0.5237 H       1  UNL1        0.0000
     15 H          -2.8121    6.4602    1.1504 H       1  UNL1        0.0000
     16 H          -2.9877    4.1548    1.9857 H       1  UNL1        0.0000
     17 H           2.3973    3.2233    0.9556 H       1  UNL1        0.0000
     18 H           2.8546    3.7323   -0.6537 H       1  UNL1        0.0000
     19 H           3.2058    2.0971   -0.1242 H       1  UNL1        0.0000
     20 H           0.9159    3.5969   -2.9580 H       1  UNL1        0.0000
     21 H           0.0368    2.0979   -3.1804 H       1  UNL1        0.0000
     22 H           1.7817    2.0770   -3.0454 H       1  UNL1        0.0000
     23 H          -0.6875    0.7958    3.6862 H       1  UNL1        0.0000
     24 H          -1.6734    2.2407    3.8293 H       1  UNL1        0.0000
     25 H          -0.0021    2.3733    3.3258 H       1  UNL1        0.0000
     26 H          -3.9303    1.9830    1.7894 H       1  UNL1        0.0000
     27 H          -3.4825    0.3356    2.1801 H       1  UNL1        0.0000
     28 H          -3.6903    0.8110    0.5090 H       1  UNL1        0.0000
@<TRIPOS>BOND
     1    21    10    1
     2    22    10    1
     3    20    10    1
     4    10     1    1
     5    13     4    1
     6     1     3    1
     7     1     9    1
     8    18     9    1
     9     4     3   ar
    10     4     5   ar
    11    14     5    1
    12     3     8   ar
    13     5     6   ar
    14    19     9    1
    15     9    17    1
    16    28    12    1
    17     8     7   ar
    18     8     2    1
    19     6    15    1
    20     6     7   ar
    21     7    16    1
    22     2    12    1
    23     2    11    1
    24    12    26    1
    25    12    27    1
    26    11    25    1
    27    11    23    1
    28    11    24    1
