@<TRIPOS>MOLECULE
1,2
 28 28 0 0 0
SMALL
GASTEIGER

@<TRIPOS>ATOM
      1 SI          3.0135    0.5981   -1.8411 Si      1  UNL1        0.0000
      2 SI          5.3298    2.4113   -0.6685 Si      1  UNL1        0.0000
      3 C           4.0187    3.2493   -1.7691 C.ar    1  UNL1        0.0000
      4 C           4.0711    4.5946   -2.1084 C.ar    1  UNL1        0.0000
      5 C           3.1185    5.1522   -2.9427 C.ar    1  UNL1        0.0000
      6 C           2.1054    4.3587   -3.4564 C.ar    1  UNL1        0.0000
      7 C           2.0540    3.0148   -3.1313 C.ar    1  UNL1        0.0000
      8 C           3.0000    2.4514   -2.2855 C.ar    1  UNL1        0.0000
      9 C           6.9537    2.5677   -1.6944 C.3     1  UNL1        0.0000
     10 C           5.5777    3.5989    0.8354 C.3     1  UNL1        0.0000
     11 C           3.3218   -0.2731   -3.5324 C.3     1  UNL1        0.0000
     12 C           1.1866    0.1608   -1.3892 C.3     1  UNL1        0.0000
     13 H           4.8661    5.2149   -1.7190 H       1  UNL1        0.0000
     14 H           3.1640    6.2025   -3.1959 H       1  UNL1        0.0000
     15 H           1.3599    4.7896   -4.1106 H       1  UNL1        0.0000
     16 H           1.2679    2.3975   -3.5432 H       1  UNL1        0.0000
     17 H           7.2970    3.5974   -1.7095 H       1  UNL1        0.0000
     18 H           6.7967    2.2623   -2.7231 H       1  UNL1        0.0000
     19 H           7.7532    1.9577   -1.2839 H       1  UNL1        0.0000
     20 H           4.8301    3.4291    1.6052 H       1  UNL1        0.0000
     21 H           5.5146    4.6411    0.5406 H       1  UNL1        0.0000
     22 H           6.5527    3.4440    1.2891 H       1  UNL1        0.0000
     23 H           2.4426   -0.1976   -4.1647 H       1  UNL1        0.0000
     24 H           3.5522   -1.3275   -3.4097 H       1  UNL1        0.0000
     25 H           4.1459    0.1883   -4.0653 H       1  UNL1        0.0000
     26 H           0.9621    0.4030   -0.3541 H       1  UNL1        0.0000
     27 H           1.0033   -0.9019   -1.5217 H       1  UNL1        0.0000
     28 H           0.4785    0.6963   -2.0129 H       1  UNL1        0.0000
@<TRIPOS>BOND
     1    23    11    1
     2    15     6    1
     3    25    11    1
     4    16     7    1
     5    11    24    1
     6    11     1    1
     7     6     7   ar
     8     6     5   ar
     9    14     5    1
    10     7     8   ar
    11     5     4   ar
    12    18     9    1
    13     8     1    1
    14     8     3   ar
    15     4     3   ar
    16     4    13    1
    17    28    12    1
    18     1    12    1
    19     3     2    1
    20    17     9    1
    21     9    19    1
    22     9     2    1
    23    27    12    1
    24    12    26    1
    25     2    10    1
    26    21    10    1
    27    10    22    1
    28    10    20    1
