@<TRIPOS>MOLECULE
1,2
 28 28 0 0 0
SMALL
GASTEIGER

@<TRIPOS>ATOM
      1 SI          6.4144   -0.5983    1.8416 Si      1  UNL1        0.0000
      2 SI          4.0981   -2.4108    0.6682 Si      1  UNL1        0.0000
      3 C           5.4089   -3.2493    1.7686 C.ar    1  UNL1        0.0000
      4 C           5.3563   -4.5948    2.1074 C.ar    1  UNL1        0.0000
      5 C           6.3087   -5.1528    2.9416 C.ar    1  UNL1        0.0000
      6 C           7.3217   -4.3597    3.4558 C.ar    1  UNL1        0.0000
      7 C           7.3735   -3.0157    3.1313 C.ar    1  UNL1        0.0000
      8 C           6.4276   -2.4518    2.2856 C.ar    1  UNL1        0.0000
      9 C           2.4739   -2.5670    1.6937 C.3     1  UNL1        0.0000
     10 C           3.8503   -3.5977   -0.8362 C.3     1  UNL1        0.0000
     11 C           6.1059    0.2722    3.5332 C.3     1  UNL1        0.0000
     12 C           8.2416   -0.1612    1.3905 C.3     1  UNL1        0.0000
     13 H           4.5611   -5.2148    1.7177 H       1  UNL1        0.0000
     14 H           6.2630   -6.2033    3.1943 H       1  UNL1        0.0000
     15 H           8.0672   -4.7910    4.1098 H       1  UNL1        0.0000
     16 H           8.1596   -2.3987    3.5434 H       1  UNL1        0.0000
     17 H           2.1305   -3.5966    1.7086 H       1  UNL1        0.0000
     18 H           2.6308   -2.2618    2.7224 H       1  UNL1        0.0000
     19 H           1.6747   -1.9567    1.2832 H       1  UNL1        0.0000
     20 H           4.5981   -3.4279   -1.6058 H       1  UNL1        0.0000
     21 H           3.9130   -4.6400   -0.5417 H       1  UNL1        0.0000
     22 H           2.8754   -3.4425   -1.2902 H       1  UNL1        0.0000
     23 H           6.9848    0.1964    4.1657 H       1  UNL1        0.0000
     24 H           5.8758    1.3266    3.4110 H       1  UNL1        0.0000
     25 H           5.2817   -0.1890    4.0658 H       1  UNL1        0.0000
     26 H           8.4664   -0.4031    0.3555 H       1  UNL1        0.0000
     27 H           8.4251    0.9014    1.5234 H       1  UNL1        0.0000
     28 H           8.9494   -0.6970    2.0143 H       1  UNL1        0.0000
@<TRIPOS>BOND
     1    20    10    1
     2    22    10    1
     3    10    21    1
     4    10     2    1
     5    26    12    1
     6     2     9    1
     7     2     3    1
     8    19     9    1
     9    12    27    1
    10    12     1    1
    11    12    28    1
    12     9    17    1
    13     9    18    1
    14    13     4    1
    15     3     4   ar
    16     3     8   ar
    17     1     8    1
    18     1    11    1
    19     4     5   ar
    20     8     7   ar
    21     5    14    1
    22     5     6   ar
    23     7     6   ar
    24     7    16    1
    25    24    11    1
    26     6    15    1
    27    11    25    1
    28    11    23    1
