@<TRIPOS>MOLECULE
1,2
 28 28 0 0 0
SMALL
GASTEIGER

@<TRIPOS>ATOM
      1 SI         -0.7517   -2.3426    0.7491 Si      1  UNL1        0.0000
      2 SI          1.4411   -1.6090   -1.3991 Si      1  UNL1        0.0000
      3 C           0.4232   -3.7311    0.1789 C.ar    1  UNL1        0.0000
      4 C           0.3194   -5.0402    0.6288 C.ar    1  UNL1        0.0000
      5 C           1.1768   -6.0198    0.1611 C.ar    1  UNL1        0.0000
      6 C           2.1420   -5.6972   -0.7783 C.ar    1  UNL1        0.0000
      7 C           2.2414   -4.3979   -1.2424 C.ar    1  UNL1        0.0000
      8 C           1.3940   -3.4066   -0.7668 C.ar    1  UNL1        0.0000
      9 C          -2.4721   -2.8962    0.0772 C.3     1  UNL1        0.0000
     10 C          -0.8804   -2.5516    2.6676 C.3     1  UNL1        0.0000
     11 C           0.8962   -1.7639   -3.2407 C.3     1  UNL1        0.0000
     12 C           3.3177   -1.1446   -1.4738 C.3     1  UNL1        0.0000
     13 H          -0.4408   -5.3001    1.3521 H       1  UNL1        0.0000
     14 H           1.0917   -7.0350    0.5235 H       1  UNL1        0.0000
     15 H           2.8118   -6.4601   -1.1505 H       1  UNL1        0.0000
     16 H           2.9876   -4.1547   -1.9858 H       1  UNL1        0.0000
     17 H          -2.3980   -3.2216   -0.9557 H       1  UNL1        0.0000
     18 H          -2.8540   -3.7331    0.6531 H       1  UNL1        0.0000
     19 H          -3.2064   -2.0974    0.1262 H       1  UNL1        0.0000
     20 H          -0.9155   -3.5967    2.9583 H       1  UNL1        0.0000
     21 H          -0.0365   -2.0976    3.1805 H       1  UNL1        0.0000
     22 H          -1.7814   -2.0768    3.0457 H       1  UNL1        0.0000
     23 H           0.6878   -0.7955   -3.6863 H       1  UNL1        0.0000
     24 H           1.6738   -2.2404   -3.8294 H       1  UNL1        0.0000
     25 H           0.0024   -2.3731   -3.3261 H       1  UNL1        0.0000
     26 H           3.9304   -1.9829   -1.7890 H       1  UNL1        0.0000
     27 H           3.4828   -0.3356   -2.1799 H       1  UNL1        0.0000
     28 H           3.6903   -0.8109   -0.5087 H       1  UNL1        0.0000
@<TRIPOS>BOND
     1    24    11    1
     2    23    11    1
     3    25    11    1
     4    11     2    1
     5    27    12    1
     6    16     7    1
     7    26    12    1
     8    12     2    1
     9    12    28    1
    10     2     8    1
    11     7     6   ar
    12     7     8   ar
    13    15     6    1
    14    17     9    1
    15     6     5   ar
    16     8     3   ar
    17     9    19    1
    18     9    18    1
    19     9     1    1
    20     5    14    1
    21     5     4   ar
    22     3     4   ar
    23     3     1    1
    24     4    13    1
    25     1    10    1
    26    10    20    1
    27    10    22    1
    28    10    21    1
