@<TRIPOS>MOLECULE
1,2
 28 28 0 0 0
SMALL
GASTEIGER

@<TRIPOS>ATOM
      1 SI         -0.7435   -2.1031    0.7024 Si      1  UNL1        0.0000
      2 SI          1.3521   -1.3734   -1.3212 Si      1  UNL1        0.0000
      3 C           0.3840   -3.5250    0.1615 C.ar    1  UNL1        0.0000
      4 C           0.2681   -4.8403    0.5844 C.ar    1  UNL1        0.0000
      5 H          -0.4889   -5.1078    1.3080 H       1  UNL1        0.0000
      6 C           1.1137   -5.8157    0.0858 C.ar    1  UNL1        0.0000
      7 H           1.0238   -6.8386    0.4246 H       1  UNL1        0.0000
      8 C           2.0730   -5.4805   -0.8559 C.ar    1  UNL1        0.0000
      9 H           2.7311   -6.2420   -1.2513 H       1  UNL1        0.0000
     10 C           2.1815   -4.1717   -1.2920 C.ar    1  UNL1        0.0000
     11 H           2.9212   -3.9153   -2.0372 H       1  UNL1        0.0000
     12 C           1.3474   -3.1886   -0.7820 C.ar    1  UNL1        0.0000
     13 C          -2.4387   -2.5943   -0.0516 C.3     1  UNL1        0.0000
     14 H          -2.3099   -2.9204   -1.0767 H       1  UNL1        0.0000
     15 H          -2.8944   -3.4128    0.4957 H       1  UNL1        0.0000
     16 H          -3.1346   -1.7633   -0.0502 H       1  UNL1        0.0000
     17 C          -0.9201   -2.3364    2.6111 C.3     1  UNL1        0.0000
     18 H          -1.8007   -1.8201    2.9806 H       1  UNL1        0.0000
     19 H          -1.0067   -3.3785    2.9003 H       1  UNL1        0.0000
     20 H          -0.0634   -1.9229    3.1347 H       1  UNL1        0.0000
     21 C           0.8238   -1.4604   -3.1684 C.3     1  UNL1        0.0000
     22 H           0.1137   -2.2649   -3.3259 H       1  UNL1        0.0000
     23 H           0.3626   -0.5359   -3.4967 H       1  UNL1        0.0000
     24 H           1.6742   -1.6531   -3.8138 H       1  UNL1        0.0000
     25 C           3.2254   -0.9048   -1.3414 C.3     1  UNL1        0.0000
     26 H           3.8499   -1.6992   -1.7367 H       1  UNL1        0.0000
     27 H           3.3947   -0.0220   -1.9503 H       1  UNL1        0.0000
     28 H           3.5810   -0.6786   -0.3409 H       1  UNL1        0.0000
@<TRIPOS>BOND
     1    24    21    1
     2    23    21    1
     3    22    21    1
     4    21     2    1
     5    11    10    1
     6    27    25    1
     7    26    25    1
     8    25     2    1
     9    25    28    1
    10     2    12    1
    11    10     8   ar
    12    10    12   ar
    13     9     8    1
    14    14    13    1
    15     8     6   ar
    16    12     3   ar
    17    13    16    1
    18    13    15    1
    19    13     1    1
    20     6     7    1
    21     6     4   ar
    22     3     4   ar
    23     3     1    1
    24     4     5    1
    25     1    17    1
    26    17    19    1
    27    17    18    1
    28    17    20    1
