@<TRIPOS>MOLECULE
1,2
 28 28 0 0 0
SMALL
GASTEIGER

@<TRIPOS>ATOM
      1 SI          0.7449    2.1034   -0.7037 Si      1  UNL1        0.0000
      2 SI         -1.3534    1.3728    1.3222 Si      1  UNL1        0.0000
      3 C          -0.3840    3.5239   -0.1620 C.ar    1  UNL1        0.0000
      4 C          -0.2681    4.8392   -0.5848 C.ar    1  UNL1        0.0000
      5 H           0.4889    5.1068   -1.3082 H       1  UNL1        0.0000
      6 C          -1.1136    5.8147   -0.0862 C.ar    1  UNL1        0.0000
      7 H          -1.0236    6.8376   -0.4249 H       1  UNL1        0.0000
      8 C          -2.0729    5.4795    0.8556 C.ar    1  UNL1        0.0000
      9 H          -2.7309    6.2410    1.2511 H       1  UNL1        0.0000
     10 C          -2.1814    4.1707    1.2916 C.ar    1  UNL1        0.0000
     11 H          -2.9210    3.9143    2.0368 H       1  UNL1        0.0000
     12 C          -1.3473    3.1875    0.7814 C.ar    1  UNL1        0.0000
     13 C           2.4389    2.5957    0.0522 C.3     1  UNL1        0.0000
     14 H           2.3087    2.9219    1.0770 H       1  UNL1        0.0000
     15 H           2.8949    3.4143   -0.4946 H       1  UNL1        0.0000
     16 H           3.1352    1.7650    0.0518 H       1  UNL1        0.0000
     17 C           0.9217    2.3387   -2.6121 C.3     1  UNL1        0.0000
     18 H           1.8024    1.8230   -2.9820 H       1  UNL1        0.0000
     19 H           1.0079    3.3811   -2.9005 H       1  UNL1        0.0000
     20 H           0.0651    1.9253   -3.1361 H       1  UNL1        0.0000
     21 C          -0.8241    1.4618    3.1690 C.3     1  UNL1        0.0000
     22 H          -0.1147    2.2671    3.3256 H       1  UNL1        0.0000
     23 H          -0.3618    0.5380    3.4977 H       1  UNL1        0.0000
     24 H          -1.6742    1.6540    3.8149 H       1  UNL1        0.0000
     25 C          -3.2271    0.9060    1.3428 C.3     1  UNL1        0.0000
     26 H          -3.8512    1.7010    1.7376 H       1  UNL1        0.0000
     27 H          -3.3971    0.0236    1.9521 H       1  UNL1        0.0000
     28 H          -3.5827    0.6795    0.3424 H       1  UNL1        0.0000
@<TRIPOS>BOND
     1    20    17    1
     2    18    17    1
     3    19    17    1
     4    17     1    1
     5     5     4    1
     6     1     3    1
     7     1    13    1
     8     4     3   ar
     9     4     6   ar
    10    15    13    1
    11     7     6    1
    12     3    12   ar
    13     6     8   ar
    14    16    13    1
    15    13    14    1
    16    28    25    1
    17    12    10   ar
    18    12     2    1
    19     8     9    1
    20     8    10   ar
    21    10    11    1
    22     2    25    1
    23     2    21    1
    24    25    26    1
    25    25    27    1
    26    21    22    1
    27    21    23    1
    28    21    24    1
