@<TRIPOS>MOLECULE
1,2
 46 48 0 0 0
SMALL
GASTEIGER

@<TRIPOS>ATOM
      1 SI         -0.4000    1.6684    6.1012 Si      1  UNL1        0.0000
      2 SI          0.6205    5.1057    5.9541 Si      1  UNL1        0.0000
      3 O           1.9549    2.8884    7.0512 O.3     1  UNL1        0.0000
      4 C           0.6606    1.3538    4.5248 C.3     1  UNL1        0.0000
      5 C          -1.8145    0.3695    5.9007 C.3     1  UNL1        0.0000
      6 C           1.6626    4.6568    4.3978 C.3     1  UNL1        0.0000
      7 C           0.1406    6.9418    5.5986 C.3     1  UNL1        0.0000
      8 C           0.7041    0.9772    7.4986 C.ar    1  UNL1        0.0000
      9 C           0.4974   -0.1690    8.2482 C.ar    1  UNL1        0.0000
     10 C           1.3614   -0.4950    9.2796 C.ar    1  UNL1        0.0000
     11 C           2.4413    0.3172    9.5838 C.ar    1  UNL1        0.0000
     12 C           2.6915    1.4673    8.8479 C.ar    1  UNL1        0.0000
     13 C           1.8130    1.7549    7.8098 C.ar    1  UNL1        0.0000
     14 C           1.9375    5.1981    7.3337 C.ar    1  UNL1        0.0000
     15 C           2.3887    6.3258    7.9991 C.ar    1  UNL1        0.0000
     16 C           3.3068    6.2087    9.0288 C.ar    1  UNL1        0.0000
     17 C           3.7884    4.9680    9.4123 C.ar    1  UNL1        0.0000
     18 C           3.3724    3.8148    8.7612 C.ar    1  UNL1        0.0000
     19 C           2.4590    3.9709    7.7253 C.ar    1  UNL1        0.0000
     20 C           3.8653    2.4089    9.0611 C.3     1  UNL1        0.0000
     21 C           4.9483    2.0573    8.0216 C.3     1  UNL1        0.0000
     22 C           4.4611    2.2877   10.4628 C.3     1  UNL1        0.0000
     23 H           0.7300    0.2848    4.3457 H       1  UNL1        0.0000
     24 H           0.2326    1.8083    3.6383 H       1  UNL1        0.0000
     25 H           1.6685    1.7309    4.6422 H       1  UNL1        0.0000
     26 H          -2.3897    0.2341    6.8109 H       1  UNL1        0.0000
     27 H          -2.5048    0.6726    5.1196 H       1  UNL1        0.0000
     28 H          -1.4121   -0.5984    5.6200 H       1  UNL1        0.0000
     29 H           2.3187    3.8171    4.5886 H       1  UNL1        0.0000
     30 H           1.0463    4.4135    3.5397 H       1  UNL1        0.0000
     31 H           2.2861    5.5034    4.1259 H       1  UNL1        0.0000
     32 H           1.0027    7.5063    5.2581 H       1  UNL1        0.0000
     33 H          -0.6119    6.9961    4.8179 H       1  UNL1        0.0000
     34 H          -0.2577    7.4474    6.4722 H       1  UNL1        0.0000
     35 H          -0.3510   -0.7996    8.0337 H       1  UNL1        0.0000
     36 H           1.1897   -1.3878    9.8630 H       1  UNL1        0.0000
     37 H           3.0870    0.0428   10.4026 H       1  UNL1        0.0000
     38 H           2.0087    7.2960    7.7205 H       1  UNL1        0.0000
     39 H           3.6482    7.0925    9.5476 H       1  UNL1        0.0000
     40 H           4.4931    4.9102   10.2263 H       1  UNL1        0.0000
     41 H           5.2992    1.0390    8.1770 H       1  UNL1        0.0000
     42 H           4.5515    2.1349    7.0117 H       1  UNL1        0.0000
     43 H           5.7909    2.7399    8.1144 H       1  UNL1        0.0000
     44 H           4.8239    1.2774   10.6327 H       1  UNL1        0.0000
     45 H           5.3099    2.9579   10.5712 H       1  UNL1        0.0000
     46 H           3.7184    2.5302   11.2196 H       1  UNL1        0.0000
@<TRIPOS>BOND
     1    30     6    1
     2    24     4    1
     3    31     6    1
     4    23     4    1
     5     6    29    1
     6     6     2    1
     7     4    25    1
     8     4     1    1
     9    33     7    1
    10    27     5    1
    11    32     7    1
    12     7     2    1
    13     7    34    1
    14    28     5    1
    15     5     1    1
    16     5    26    1
    17     2    14    1
    18     1     8    1
    19    42    21    1
    20     3    19    1
    21     3    13    1
    22    14    19   ar
    23    14    15   ar
    24     8    13   ar
    25     8     9   ar
    26    38    15    1
    27    19    18   ar
    28    13    12   ar
    29    15    16   ar
    30    21    43    1
    31    21    41    1
    32    21    20    1
    33    35     9    1
    34     9    10   ar
    35    18    20    1
    36    18    17   ar
    37    12    20    1
    38    12    11   ar
    39    16    17   ar
    40    16    39    1
    41    20    22    1
    42    10    11   ar
    43    10    36    1
    44    17    40    1
    45    11    37    1
    46    22    45    1
    47    22    44    1
    48    22    46    1
