@<TRIPOS>MOLECULE
1,2
 46 48 0 0 0
SMALL
GASTEIGER

@<TRIPOS>ATOM
      1 SI          6.0389    1.6448    3.5872 Si      1  UNL1        0.0000
      2 SI          4.9749    5.2913    3.6957 Si      1  UNL1        0.0000
      3 O           3.7041    2.9757    2.5747 O.3     1  UNL1        0.0000
      4 C           4.9712    1.3995    5.1762 C.3     1  UNL1        0.0000
      5 H           3.9863    1.8350    5.0611 H       1  UNL1        0.0000
      6 H           5.4300    1.8365    6.0572 H       1  UNL1        0.0000
      7 H           4.8427    0.3372    5.3615 H       1  UNL1        0.0000
      8 C           7.3883    0.2694    3.7809 C.3     1  UNL1        0.0000
      9 H           8.0767    0.5122    4.5854 H       1  UNL1        0.0000
     10 H           7.9762    0.1298    2.8785 H       1  UNL1        0.0000
     11 H           6.9279   -0.6827    4.0255 H       1  UNL1        0.0000
     12 C           3.9637    4.8330    5.2745 C.3     1  UNL1        0.0000
     13 H           3.2938    5.6514    5.5214 H       1  UNL1        0.0000
     14 H           4.5969    4.6511    6.1368 H       1  UNL1        0.0000
     15 H           3.3581    3.9499    5.1117 H       1  UNL1        0.0000
     16 C           5.3778    7.1622    3.9913 C.3     1  UNL1        0.0000
     17 H           5.7817    7.6480    3.1079 H       1  UNL1        0.0000
     18 H           6.1037    7.2811    4.7906 H       1  UNL1        0.0000
     19 H           4.4827    7.7016    4.2842 H       1  UNL1        0.0000
     20 C           4.8967    1.0084    2.1847 C.ar    1  UNL1        0.0000
     21 C           5.0699   -0.1598    1.4591 C.ar    1  UNL1        0.0000
     22 H           5.8945   -0.8140    1.6941 H       1  UNL1        0.0000
     23 C           4.2047   -0.4821    0.4284 C.ar    1  UNL1        0.0000
     24 H           4.3537   -1.3914   -0.1354 H       1  UNL1        0.0000
     25 C           3.1476    0.3521    0.1071 C.ar    1  UNL1        0.0000
     26 H           2.4933    0.0759   -0.7041 H       1  UNL1        0.0000
     27 C           2.9278    1.5238    0.8179 C.ar    1  UNL1        0.0000
     28 C           3.8161    1.8196    1.8468 C.ar    1  UNL1        0.0000
     29 C           3.6504    5.2932    2.3095 C.ar    1  UNL1        0.0000
     30 C           3.1599    6.4095    1.6505 C.ar    1  UNL1        0.0000
     31 H           3.5089    7.3899    1.9335 H       1  UNL1        0.0000
     32 C           2.2411    6.2729    0.6248 C.ar    1  UNL1        0.0000
     33 H           1.8712    7.1492    0.1128 H       1  UNL1        0.0000
     34 C           1.7906    5.0208    0.2426 C.ar    1  UNL1        0.0000
     35 H           1.0778    4.9466   -0.5628 H       1  UNL1        0.0000
     36 C           2.2436    3.8775    0.8861 C.ar    1  UNL1        0.0000
     37 C           3.1678    4.0489    1.9115 C.ar    1  UNL1        0.0000
     38 C           1.7588    2.4678    0.5939 C.3     1  UNL1        0.0000
     39 C           0.6735    2.1223    1.6339 C.3     1  UNL1        0.0000
     40 H           1.0695    2.2054    2.6438 H       1  UNL1        0.0000
     41 H           0.3226    1.1032    1.4838 H       1  UNL1        0.0000
     42 H          -0.1685    2.8048    1.5365 H       1  UNL1        0.0000
     43 C           1.1647    2.3360   -0.8080 C.3     1  UNL1        0.0000
     44 H           0.8035    1.3243   -0.9722 H       1  UNL1        0.0000
     45 H           1.9077    2.5752   -1.5656 H       1  UNL1        0.0000
     46 H           0.3141    3.0027   -0.9223 H       1  UNL1        0.0000
@<TRIPOS>BOND
     1    45    43    1
     2    44    43    1
     3    46    43    1
     4    43    38    1
     5    26    25    1
     6    35    34    1
     7    24    23    1
     8    25    23   ar
     9    25    27   ar
    10    33    32    1
    11    34    32   ar
    12    34    36   ar
    13    23    21   ar
    14    38    27    1
    15    38    36    1
    16    38    39    1
    17    32    30   ar
    18    27    28   ar
    19    36    37   ar
    20    21    22    1
    21    21    20   ar
    22    41    39    1
    23    42    39    1
    24    39    40    1
    25    30    31    1
    26    30    29   ar
    27    28    20   ar
    28    28     3    1
    29    37    29   ar
    30    37     3    1
    31    20     1    1
    32    29     2    1
    33    10     8    1
    34    17    16    1
    35     1     8    1
    36     1     4    1
    37     2    16    1
    38     2    12    1
    39     8    11    1
    40     8     9    1
    41    16    19    1
    42    16    18    1
    43     5     4    1
    44    15    12    1
    45     4     7    1
    46     4     6    1
    47    12    13    1
    48    12    14    1
