@<TRIPOS>MOLECULE
1,2
 33 32 0 0 0
SMALL
GASTEIGER

@<TRIPOS>ATOM
      1 SI          0.9283    4.2148    3.7506 Si      1  UNL1        0.0000
      2 SI          2.0631    1.9674    2.4006 Si      1  UNL1        0.0000
      3 N           2.3509    3.9300    2.4097 N.4     1  UNL1        0.0000
      4 C           1.4455    5.7616    4.7853 C.3     1  UNL1        0.0000
      5 C          -0.5719    4.8634    2.7344 C.3     1  UNL1        0.0000
      6 C           1.1580    1.6840    0.7257 C.3     1  UNL1        0.0000
      7 C           3.7136    1.0141    2.0923 C.3     1  UNL1        0.0000
      8 C           3.6493    4.2725    2.9883 C.3     1  UNL1        0.0000
      9 C           4.8526    4.1290    2.0606 C.3     1  UNL1        0.0000
     10 C           2.1459    4.5888    1.1227 C.3     1  UNL1        0.0000
     11 C           2.2786    6.1092    1.1377 C.3     1  UNL1        0.0000
     12 H           2.3355    5.5922    5.3819 H       1  UNL1        0.0000
     13 H           0.6383    5.9899    5.4742 H       1  UNL1        0.0000
     14 H           1.6134    6.6501    4.1833 H       1  UNL1        0.0000
     15 H          -0.9118    4.1198    2.0212 H       1  UNL1        0.0000
     16 H          -0.4065    5.7965    2.2060 H       1  UNL1        0.0000
     17 H          -1.3925    5.0253    3.4255 H       1  UNL1        0.0000
     18 H           0.1828    2.1587    0.7102 H       1  UNL1        0.0000
     19 H           0.9877    0.6184    0.6122 H       1  UNL1        0.0000
     20 H           1.7181    2.0182   -0.1428 H       1  UNL1        0.0000
     21 H           3.5053   -0.0410    2.2437 H       1  UNL1        0.0000
     22 H           4.5093    1.2848    2.7775 H       1  UNL1        0.0000
     23 H           4.0846    1.1199    1.0763 H       1  UNL1        0.0000
     24 H           3.7891    3.6167    3.8494 H       1  UNL1        0.0000
     25 H           3.6205    5.3002    3.3575 H       1  UNL1        0.0000
     26 H           5.7628    4.1724    2.6548 H       1  UNL1        0.0000
     27 H           4.8969    4.9315    1.3293 H       1  UNL1        0.0000
     28 H           4.8317    3.1841    1.5322 H       1  UNL1        0.0000
     29 H           2.8484    4.1793    0.3915 H       1  UNL1        0.0000
     30 H           1.1408    4.3335    0.7954 H       1  UNL1        0.0000
     31 H           1.9730    6.4986    0.1692 H       1  UNL1        0.0000
     32 H           3.3000    6.4309    1.3202 H       1  UNL1        0.0000
     33 H           1.6404    6.5443    1.8989 H       1  UNL1        0.0000
@<TRIPOS>BOND
     1    20     6    1
     2    31    11    1
     3    29    10    1
     4    19     6    1
     5    18     6    1
     6     6     2    1
     7    30    10    1
     8    23     7    1
     9    10    11    1
    10    10     3    1
    11    11    32    1
    12    11    33    1
    13    27     9    1
    14    28     9    1
    15    15     5    1
    16     9    26    1
    17     9     8    1
    18     7    21    1
    19     7     2    1
    20     7    22    1
    21    16     5    1
    22     2     3    1
    23     3     8    1
    24     3     1    1
    25     5    17    1
    26     5     1    1
    27     8    25    1
    28     8    24    1
    29     1     4    1
    30    14     4    1
    31     4    12    1
    32     4    13    1
