@<TRIPOS>MOLECULE
1,2
 46 48 0 0 0
SMALL
GASTEIGER

@<TRIPOS>ATOM
      1 SI         -0.4453    1.3347    4.0603 Si      1  UNL1        0.0000
      2 SI         -3.9763    2.3727    4.2951 Si      1  UNL1        0.0000
      3 O          -1.9525    2.2185    6.5023 O.3     1  UNL1        0.0000
      4 C          -1.1394   -0.3122    3.3236 C.3     1  UNL1        0.0000
      5 H          -0.3669   -1.0742    3.3000 H       1  UNL1        0.0000
      6 H          -1.4933   -0.1598    2.3107 H       1  UNL1        0.0000
      7 H          -1.9668   -0.6939    3.9111 H       1  UNL1        0.0000
      8 C           1.2966    1.5185    3.2342 C.3     1  UNL1        0.0000
      9 H           1.1812    1.7996    2.1936 H       1  UNL1        0.0000
     10 H           1.8365    0.5782    3.2611 H       1  UNL1        0.0000
     11 H           1.9095    2.2720    3.7167 H       1  UNL1        0.0000
     12 C          -0.1130    0.8353    5.9082 C.ar    1  UNL1        0.0000
     13 C           0.8752   -0.0474    6.3138 C.ar    1  UNL1        0.0000
     14 H           1.5797   -0.4168    5.5850 H       1  UNL1        0.0000
     15 C           0.9566   -0.4692    7.6288 C.ar    1  UNL1        0.0000
     16 H           1.7342   -1.1561    7.9305 H       1  UNL1        0.0000
     17 C           0.0341   -0.0345    8.5651 C.ar    1  UNL1        0.0000
     18 H           0.1046   -0.3970    9.5779 H       1  UNL1        0.0000
     19 C          -0.9653    0.8584    8.2068 C.ar    1  UNL1        0.0000
     20 C          -0.9927    1.2915    6.8820 C.ar    1  UNL1        0.0000
     21 C          -2.0141    1.4126    9.1574 C.3     1  UNL1        0.0000
     22 C          -2.1751    0.5485   10.4074 C.3     1  UNL1        0.0000
     23 H          -2.4684   -0.4645   10.1410 H       1  UNL1        0.0000
     24 H          -2.9279    0.9732   11.0668 H       1  UNL1        0.0000
     25 H          -1.2421    0.5134   10.9643 H       1  UNL1        0.0000
     26 C          -1.5897    2.8287    9.5928 C.3     1  UNL1        0.0000
     27 H          -0.6206    2.7978   10.0877 H       1  UNL1        0.0000
     28 H          -2.3250    3.2450   10.2793 H       1  UNL1        0.0000
     29 H          -1.5160    3.4913    8.7332 H       1  UNL1        0.0000
     30 C          -3.2102    1.9357    7.0312 C.ar    1  UNL1        0.0000
     31 C          -3.3027    1.5269    8.3603 C.ar    1  UNL1        0.0000
     32 C          -4.5708    1.2720    8.8613 C.ar    1  UNL1        0.0000
     33 H          -4.7003    0.9548    9.8836 H       1  UNL1        0.0000
     34 C          -5.6875    1.4212    8.0562 C.ar    1  UNL1        0.0000
     35 H          -6.6677    1.2279    8.4679 H       1  UNL1        0.0000
     36 C          -5.5524    1.7942    6.7315 C.ar    1  UNL1        0.0000
     37 H          -6.4260    1.8770    6.1032 H       1  UNL1        0.0000
     38 C          -4.3045    2.0492    6.1851 C.ar    1  UNL1        0.0000
     39 C          -5.2739    3.7532    3.8566 C.3     1  UNL1        0.0000
     40 H          -6.2877    3.3822    3.9718 H       1  UNL1        0.0000
     41 H          -5.1546    4.0571    2.8212 H       1  UNL1        0.0000
     42 H          -5.1787    4.6434    4.4741 H       1  UNL1        0.0000
     43 C          -4.7270    0.7878    3.4981 C.3     1  UNL1        0.0000
     44 H          -4.5671    0.7918    2.4259 H       1  UNL1        0.0000
     45 H          -5.7969    0.7379    3.6761 H       1  UNL1        0.0000
     46 H          -4.2819   -0.1173    3.8966 H       1  UNL1        0.0000
@<TRIPOS>BOND
     1     9     8    1
     2     6     4    1
     3    44    43    1
     4    41    39    1
     5     8    10    1
     6     8    11    1
     7     8     1    1
     8     5     4    1
     9     4     7    1
    10     4     1    1
    11    43    45    1
    12    43    46    1
    13    43     2    1
    14    39    40    1
    15    39     2    1
    16    39    42    1
    17     1    12    1
    18     2    38    1
    19    14    13    1
    20    12    13   ar
    21    12    20   ar
    22    37    36    1
    23    38    36   ar
    24    38    30   ar
    25    13    15   ar
    26     3    20    1
    27     3    30    1
    28    36    34   ar
    29    20    19   ar
    30    30    31   ar
    31    15    16    1
    32    15    17   ar
    33    34    35    1
    34    34    32   ar
    35    19    17   ar
    36    19    21    1
    37    31    32   ar
    38    31    21    1
    39    17    18    1
    40    29    26    1
    41    32    33    1
    42    21    26    1
    43    21    22    1
    44    26    27    1
    45    26    28    1
    46    23    22    1
    47    22    25    1
    48    22    24    1
