@<TRIPOS>MOLECULE
1,2
 28 28 0 0 0
SMALL
GASTEIGER

@<TRIPOS>ATOM
      1 SI          8.7512    1.2226    8.1182 Si      1  UNL1        0.0000
      2 SI         10.6215    3.6585    8.9962 Si      1  UNL1        0.0000
      3 C           8.7326    1.7635    9.9346 C.ar    1  UNL1        0.0000
      4 C           7.9432    1.1409   10.8912 C.ar    1  UNL1        0.0000
      5 C           7.9394    1.5635   12.2098 C.ar    1  UNL1        0.0000
      6 C           8.7370    2.6298   12.5862 C.ar    1  UNL1        0.0000
      7 C           9.5288    3.2559   11.6385 C.ar    1  UNL1        0.0000
      8 C           9.5394    2.8368   10.3155 C.ar    1  UNL1        0.0000
      9 C           9.2530   -0.6227    8.0193 C.3     1  UNL1        0.0000
     10 C           6.9490    1.2565    7.4732 C.3     1  UNL1        0.0000
     11 C          12.4455    3.4917    9.5559 C.3     1  UNL1        0.0000
     12 C          10.1788    5.5193    8.8774 C.3     1  UNL1        0.0000
     13 H           7.3183    0.3081   10.6000 H       1  UNL1        0.0000
     14 H           7.3177    1.0654   12.9412 H       1  UNL1        0.0000
     15 H           8.7414    2.9695   13.6130 H       1  UNL1        0.0000
     16 H          10.1530    4.0883   11.9333 H       1  UNL1        0.0000
     17 H          10.2720   -0.7649    8.3556 H       1  UNL1        0.0000
     18 H           8.6085   -1.2330    8.6421 H       1  UNL1        0.0000
     19 H           9.1750   -0.9982    7.0057 H       1  UNL1        0.0000
     20 H           6.2975    0.6939    8.1325 H       1  UNL1        0.0000
     21 H           6.5733    2.2705    7.4242 H       1  UNL1        0.0000
     22 H           6.8711    0.8162    6.4866 H       1  UNL1        0.0000
     23 H          12.6857    2.4467    9.7136 H       1  UNL1        0.0000
     24 H          13.1328    3.8792    8.8139 H       1  UNL1        0.0000
     25 H          12.6296    4.0227   10.4832 H       1  UNL1        0.0000
     26 H           9.5629    5.8214    9.7166 H       1  UNL1        0.0000
     27 H          11.0579    6.1529    8.8686 H       1  UNL1        0.0000
     28 H           9.6100    5.7012    7.9736 H       1  UNL1        0.0000
@<TRIPOS>BOND
     1    22    10    1
     2    19     9    1
     3    21    10    1
     4    10     1    1
     5    10    20    1
     6    28    12    1
     7     9     1    1
     8     9    17    1
     9     9    18    1
    10     1     3    1
    11    24    11    1
    12    27    12    1
    13    12     2    1
    14    12    26    1
    15     2    11    1
    16     2     8    1
    17    11    23    1
    18    11    25    1
    19     3     8   ar
    20     3     4   ar
    21     8     7   ar
    22    13     4    1
    23     4     5   ar
    24     7    16    1
    25     7     6   ar
    26     5     6   ar
    27     5    14    1
    28     6    15    1
