@<TRIPOS>MOLECULE
1,2
 28 28 0 0 0
SMALL
GASTEIGER

@<TRIPOS>ATOM
      1 SI          0.4227    4.9608    3.1854 Si      1  UNL1        0.0000
      2 SI          1.2254    3.1655    0.7152 Si      1  UNL1        0.0000
      3 C          -0.7216    3.4804    2.7643 C.ar    1  UNL1        0.0000
      4 C          -1.8750    3.1810    3.4744 C.ar    1  UNL1        0.0000
      5 C          -2.6670    2.0996    3.1265 C.ar    1  UNL1        0.0000
      6 C          -2.3123    1.3089    2.0478 C.ar    1  UNL1        0.0000
      7 C          -1.1689    1.6066    1.3255 C.ar    1  UNL1        0.0000
      8 C          -0.3633    2.6811    1.6727 C.ar    1  UNL1        0.0000
      9 C          -0.5596    6.5125    2.5671 C.3     1  UNL1        0.0000
     10 C           0.5130    5.1732    5.1029 C.3     1  UNL1        0.0000
     11 C           0.5522    3.9917   -0.9024 C.3     1  UNL1        0.0000
     12 C           2.1363    1.5722    0.1141 C.3     1  UNL1        0.0000
     13 H          -2.1565    3.7972    4.3165 H       1  UNL1        0.0000
     14 H          -3.5581    1.8726    3.6955 H       1  UNL1        0.0000
     15 H          -2.9253    0.4621    1.7714 H       1  UNL1        0.0000
     16 H          -0.8964    0.9877    0.4824 H       1  UNL1        0.0000
     17 H          -1.6010    6.4220    2.8568 H       1  UNL1        0.0000
     18 H          -0.1799    7.4328    2.9992 H       1  UNL1        0.0000
     19 H          -0.5308    6.6067    1.4862 H       1  UNL1        0.0000
     20 H           0.8892    4.2720    5.5752 H       1  UNL1        0.0000
     21 H           1.1678    5.9934    5.3811 H       1  UNL1        0.0000
     22 H          -0.4678    5.3844    5.5146 H       1  UNL1        0.0000
     23 H           0.0469    4.9288   -0.6915 H       1  UNL1        0.0000
     24 H           1.3370    4.1837   -1.6270 H       1  UNL1        0.0000
     25 H          -0.1706    3.3330   -1.3721 H       1  UNL1        0.0000
     26 H           3.0352    1.8157   -0.4440 H       1  UNL1        0.0000
     27 H           2.4242    0.9493    0.9543 H       1  UNL1        0.0000
     28 H           1.4975    0.9848   -0.5363 H       1  UNL1        0.0000
@<TRIPOS>BOND
     1    24    11    1
     2    25    11    1
     3    11    23    1
     4    11     2    1
     5    28    12    1
     6    26    12    1
     7    12     2    1
     8    12    27    1
     9    16     7    1
    10     2     8    1
    11     7     8   ar
    12     7     6   ar
    13    19     9    1
    14     8     3   ar
    15    15     6    1
    16     6     5   ar
    17     9    17    1
    18     9    18    1
    19     9     1    1
    20     3     1    1
    21     3     4   ar
    22     5     4   ar
    23     5    14    1
    24     1    10    1
    25     4    13    1
    26    10    21    1
    27    10    22    1
    28    10    20    1
