@<TRIPOS>MOLECULE
2
 110 116 0 0 0
SMALL
GASTEIGER

@<TRIPOS>ATOM
      1 SI         13.6682    4.0397    2.9874 Si      1  UNL1        0.0000
      2 SI         10.3354    2.5213    2.4139 Si      1  UNL1        0.0000
      3 O          13.0149    1.3771    3.0941 O.3     1  UNL1        0.0000
      4 C           8.8978    3.8367    4.5623 C.ar    1  UNL1        0.0000
      5 C           9.7070    2.7322    4.2405 C.ar    1  UNL1        0.0000
      6 C          10.0040    1.8242    5.2676 C.ar    1  UNL1        0.0000
      7 N          13.8229    4.9723    4.5677 N.3     1  UNL1        0.0000
      8 C           8.7588    2.6384    1.2843 C.ar    1  UNL1        0.0000
      9 C          10.9946   -1.2823    0.7094 C.ar    1  UNL1        0.0000
     10 H          10.4654   -1.9589    0.0545 H       1  UNL1        0.0000
     11 C          11.0582    0.7931    1.9361 C.ar    1  UNL1        0.0000
     12 C           6.5647    1.8303    0.6746 C.ar    1  UNL1        0.0000
     13 H           5.7243    1.1789    0.8737 H       1  UNL1        0.0000
     14 N          14.6254    5.6245    2.7292 N.3     1  UNL1        0.0000
     15 C          14.9585    2.6481    3.0634 C.ar    1  UNL1        0.0000
     16 C          15.0957   -2.1016    1.7509 C.3     1  UNL1        0.0000
     17 H          15.2606   -1.7375    0.7395 H       1  UNL1        0.0000
     18 H          14.5448   -3.0369    1.7063 H       1  UNL1        0.0000
     19 H          16.0564   -2.3182    2.2100 H       1  UNL1        0.0000
     20 C          12.3490    0.4504    2.3320 C.ar    1  UNL1        0.0000
     21 C           8.6982    3.5125    0.1971 C.ar    1  UNL1        0.0000
     22 C          13.3203    4.7958    5.9111 C.3     1  UNL1        0.0000
     23 C           7.5956    3.5084   -0.6503 C.ar    1  UNL1        0.0000
     24 H           7.5727    4.1868   -1.4926 H       1  UNL1        0.0000
     25 C          12.9654   -0.7486    1.9811 C.ar    1  UNL1        0.0000
     26 C          14.3291   -1.0685    2.5781 C.3     1  UNL1        0.0000
     27 C          12.2598   -1.6153    1.1572 C.ar    1  UNL1        0.0000
     28 H          12.6908   -2.5554    0.8535 H       1  UNL1        0.0000
     29 C          14.6381    7.3300    4.5534 C.ar    1  UNL1        0.0000
     30 C          14.1009   -1.6324    3.9951 C.3     1  UNL1        0.0000
     31 H          15.0555   -1.8611    4.4650 H       1  UNL1        0.0000
     32 H          13.5052   -2.5413    3.9439 H       1  UNL1        0.0000
     33 H          13.5746   -0.9108    4.6155 H       1  UNL1        0.0000
     34 C          14.3756    6.0109    3.9641 C.3     1  UNL1        0.0000
     35 C           9.7518    4.5426   -0.0668 C.3     1  UNL1        0.0000
     36 C          14.3701    1.3929    2.9603 C.ar    1  UNL1        0.0000
     37 C          16.4786    0.3573    2.6396 C.ar    1  UNL1        0.0000
     38 H          17.0941   -0.5087    2.4552 H       1  UNL1        0.0000
     39 C          15.0972    0.2342    2.7111 C.ar    1  UNL1        0.0000
     40 C          13.0841    3.2941    6.0663 C.3     1  UNL1        0.0000
     41 H          12.3659    2.9686    5.3206 H       1  UNL1        0.0000
     42 H          12.6914    3.0701    7.0543 H       1  UNL1        0.0000
     43 H          14.0133    2.7481    5.9204 H       1  UNL1        0.0000
     44 C          13.6035    8.2581    4.6314 C.ar    1  UNL1        0.0000
     45 H          12.6315    8.0001    4.2385 H       1  UNL1        0.0000
     46 C           9.5817    2.0694    6.5673 C.ar    1  UNL1        0.0000
     47 H           9.8321    1.3584    7.3432 H       1  UNL1        0.0000
     48 C          10.4008   -0.0938    1.0968 C.ar    1  UNL1        0.0000
     49 H           9.4193    0.1524    0.7238 H       1  UNL1        0.0000
     50 C          10.7555    0.5488    5.0380 C.3     1  UNL1        0.0000
     51 H          11.7990    0.7588    4.8267 H       1  UNL1        0.0000
     52 H          10.3490   -0.0073    4.1978 H       1  UNL1        0.0000
     53 H          10.7063   -0.0814    5.9237 H       1  UNL1        0.0000
     54 C           8.8497    3.1960    6.8998 C.ar    1  UNL1        0.0000
     55 C          14.3461    5.2643    6.9495 C.3     1  UNL1        0.0000
     56 H          15.3099    4.7942    6.7649 H       1  UNL1        0.0000
     57 H          14.0079    4.9838    7.9437 H       1  UNL1        0.0000
     58 H          14.4714    6.3435    6.9230 H       1  UNL1        0.0000
     59 C           7.5831    0.9263    2.7412 C.3     1  UNL1        0.0000
     60 H           7.4191    1.5290    3.6335 H       1  UNL1        0.0000
     61 H           8.5020    0.3665    2.8843 H       1  UNL1        0.0000
     62 H           6.7580    0.2231    2.6488 H       1  UNL1        0.0000
     63 C           5.3341    2.6640   -1.3473 C.3     1  UNL1        0.0000
     64 H           4.9482    1.6555   -1.4816 H       1  UNL1        0.0000
     65 H           5.5909    3.0767   -2.3201 H       1  UNL1        0.0000
     66 H           4.5373    3.2733   -0.9190 H       1  UNL1        0.0000
     67 C          14.6828    5.5394    0.3468 C.3     1  UNL1        0.0000
     68 H          15.1400    4.5536    0.3965 H       1  UNL1        0.0000
     69 H          15.0012    6.0348   -0.5671 H       1  UNL1        0.0000
     70 H          13.5906    5.4164    0.3145 H       1  UNL1        0.0000
     71 C          14.3958    7.7437    1.4745 C.3     1  UNL1        0.0000
     72 H          13.3227    7.6399    1.6178 H       1  UNL1        0.0000
     73 H          14.5765    8.1712    0.4910 H       1  UNL1        0.0000
     74 H          14.7830    8.4309    2.2222 H       1  UNL1        0.0000
     75 C          15.9031    7.6609    5.0263 C.ar    1  UNL1        0.0000
     76 H          16.7012    6.9340    4.9759 H       1  UNL1        0.0000
     77 C           8.4974    4.0548    5.8737 C.ar    1  UNL1        0.0000
     78 H           7.8911    4.9211    6.0999 H       1  UNL1        0.0000
     79 C          16.3389    2.7310    3.0033 C.ar    1  UNL1        0.0000
     80 H          16.8207    3.6931    3.0959 H       1  UNL1        0.0000
     81 C          17.0940    1.5868    2.8097 C.ar    1  UNL1        0.0000
     82 H          18.1717    1.6510    2.7670 H       1  UNL1        0.0000
     83 C           8.4045    4.8003    3.5328 C.3     1  UNL1        0.0000
     84 H           7.7785    5.5617    3.9929 H       1  UNL1        0.0000
     85 H           7.8225    4.2899    2.7696 H       1  UNL1        0.0000
     86 H           9.2370    5.2997    3.0464 H       1  UNL1        0.0000
     87 C           7.6536    1.8123    1.5332 C.ar    1  UNL1        0.0000
     88 C          15.0698    6.3702    1.5724 C.3     1  UNL1        0.0000
     89 C           6.5234    2.6608   -0.4355 C.ar    1  UNL1        0.0000
     90 C           8.4093    3.4499    8.3095 C.3     1  UNL1        0.0000
     91 H           8.3494    4.5176    8.5094 H       1  UNL1        0.0000
     92 H           9.0960    2.9938    9.0195 H       1  UNL1        0.0000
     93 H           7.4201    3.0213    8.4748 H       1  UNL1        0.0000
     94 C          13.8391    9.5051    5.1810 C.ar    1  UNL1        0.0000
     95 H          13.0359   10.2244    5.2375 H       1  UNL1        0.0000
     96 C          15.0996    9.8327    5.6540 C.ar    1  UNL1        0.0000
     97 H          15.2802   10.8074    6.0822 H       1  UNL1        0.0000
     98 C          16.5955    6.5365    1.6182 C.3     1  UNL1        0.0000
     99 H          16.8890    7.1105    2.4941 H       1  UNL1        0.0000
    100 H          16.9377    7.0630    0.7308 H       1  UNL1        0.0000
    101 H          17.0796    5.5633    1.6529 H       1  UNL1        0.0000
    102 C          16.1299    8.9107    5.5754 C.ar    1  UNL1        0.0000
    103 H          17.1134    9.1641    5.9428 H       1  UNL1        0.0000
    104 C          11.9924    5.5395    6.0864 C.3     1  UNL1        0.0000
    105 H          12.1536    6.6132    6.1400 H       1  UNL1        0.0000
    106 H          11.4982    5.2138    6.9978 H       1  UNL1        0.0000
    107 H          11.3396    5.3248    5.2443 H       1  UNL1        0.0000
    108 H           9.7828    4.8056   -1.1249 H       1  UNL1        0.0000
    109 H          10.7801    4.1720    0.2046 H       1  UNL1        0.0000
    110 H           9.5224    5.4515    0.4974 H       1  UNL1        0.0000
@<TRIPOS>BOND
     1    65    63    1
     2    24    23    1
     3    64    63    1
     4    63    66    1
     5    63    89    1
     6   108    35    1
     7    23    89   ar
     8    23    21   ar
     9    69    67    1
    10    89    12   ar
    11    35    21    1
    12    35   109    1
    13    35   110    1
    14    10     9    1
    15    21     8   ar
    16    70    67    1
    17    67    68    1
    18    67    88    1
    19    73    71    1
    20    12    13    1
    21    12    87   ar
    22     9    48   ar
    23     9    27   ar
    24    49    48    1
    25   100    98    1
    26    17    16    1
    27    28    27    1
    28    48    11   ar
    29    27    25   ar
    30     8    87   ar
    31     8     2    1
    32    71    88    1
    33    71    72    1
    34    71    74    1
    35    87    59    1
    36    88    98    1
    37    88    14    1
    38    98   101    1
    39    98    99    1
    40    18    16    1
    41    16    19    1
    42    16    26    1
    43    11    20   ar
    44    11     2    1
    45    25    20   ar
    46    25    26    1
    47    20     3    1
    48     2     5    1
    49    38    37    1
    50    26    39    1
    51    26    30    1
    52    37    39   ar
    53    37    81   ar
    54    62    59    1
    55    39    36   ar
    56    14     1    1
    57    14    34    1
    58    59    61    1
    59    59    60    1
    60    82    81    1
    61    85    83    1
    62    81    79   ar
    63    36    15   ar
    64    36     3    1
    65     1    15    1
    66     1     7    1
    67    79    15   ar
    68    79    80    1
    69    86    83    1
    70    83    84    1
    71    83     4    1
    72    32    30    1
    73    34    29    1
    74    34     7    1
    75    30    31    1
    76    30    33    1
    77    52    50    1
    78    45    44    1
    79     5     4   ar
    80     5     6   ar
    81    29    44   ar
    82    29    75   ar
    83     4    77   ar
    84     7    22    1
    85    44    94   ar
    86    51    50    1
    87    76    75    1
    88    75   102   ar
    89    50     6    1
    90    50    53    1
    91    94    95    1
    92    94    96   ar
    93   107   104    1
    94     6    46   ar
    95    41    40    1
    96   102    96   ar
    97   102   103    1
    98    96    97    1
    99    77    78    1
   100    77    54   ar
   101    22    40    1
   102    22   104    1
   103    22    55    1
   104    43    40    1
   105    40    42    1
   106   104   105    1
   107   104   106    1
   108    46    54   ar
   109    46    47    1
   110    56    55    1
   111    54    90    1
   112    58    55    1
   113    55    57    1
   114    90    93    1
   115    90    91    1
   116    90    92    1
