@<TRIPOS>MOLECULE
1,2
 46 48 0 0 0
SMALL
GASTEIGER

@<TRIPOS>ATOM
      1 SI          3.3842   -1.3856    5.2636 Si      1  UNL1        0.0000
      2 SI          0.9750   -1.4566    2.5235 Si      1  UNL1        0.0000
      3 O           3.6155   -2.5389    2.6948 O.3     1  UNL1        0.0000
      4 C           2.8672   -3.1065    5.9570 C.3     1  UNL1        0.0000
      5 H           2.8303   -3.8494    5.1696 H       1  UNL1        0.0000
      6 H           1.8903   -3.0682    6.4266 H       1  UNL1        0.0000
      7 H           3.5841   -3.4439    6.7000 H       1  UNL1        0.0000
      8 C           3.8928   -0.3892    6.8590 C.3     1  UNL1        0.0000
      9 H           3.0124   -0.0254    7.3831 H       1  UNL1        0.0000
     10 H           4.5316    0.4638    6.6475 H       1  UNL1        0.0000
     11 H           4.4278   -1.0380    7.5443 H       1  UNL1        0.0000
     12 C           5.0420   -1.7776    4.3755 C.ar    1  UNL1        0.0000
     13 C           6.3277   -1.5137    4.8177 C.ar    1  UNL1        0.0000
     14 H           6.4745   -1.0917    5.8008 H       1  UNL1        0.0000
     15 C           7.4207   -1.7754    4.0077 C.ar    1  UNL1        0.0000
     16 H           8.4195   -1.5657    4.3642 H       1  UNL1        0.0000
     17 C           7.2503   -2.3022    2.7377 C.ar    1  UNL1        0.0000
     18 H           8.1192   -2.4875    2.1264 H       1  UNL1        0.0000
     19 C           5.9799   -2.5929    2.2603 C.ar    1  UNL1        0.0000
     20 C           4.9058   -2.3239    3.1031 C.ar    1  UNL1        0.0000
     21 C           5.6735   -3.2273    0.9145 C.3     1  UNL1        0.0000
     22 C           5.4245   -4.7309    1.1506 C.3     1  UNL1        0.0000
     23 H           5.1593   -5.2175    0.2140 H       1  UNL1        0.0000
     24 H           4.6118   -4.8783    1.8584 H       1  UNL1        0.0000
     25 H           6.3211   -5.1997    1.5514 H       1  UNL1        0.0000
     26 C           6.8193   -3.0666   -0.0833 C.3     1  UNL1        0.0000
     27 H           7.7205   -3.5386    0.2986 H       1  UNL1        0.0000
     28 H           7.0269   -2.0162   -0.2751 H       1  UNL1        0.0000
     29 H           6.5742   -3.5553   -1.0225 H       1  UNL1        0.0000
     30 C           3.3865   -2.3437    1.3606 C.ar    1  UNL1        0.0000
     31 C           4.3737   -2.6174    0.4172 C.ar    1  UNL1        0.0000
     32 C           4.0733   -2.3579   -0.9129 C.ar    1  UNL1        0.0000
     33 H           4.8018   -2.5523   -1.6839 H       1  UNL1        0.0000
     34 C           2.8355   -1.8476   -1.2685 C.ar    1  UNL1        0.0000
     35 H           2.6201   -1.6573   -2.3104 H       1  UNL1        0.0000
     36 C           1.8785   -1.5799   -0.3034 C.ar    1  UNL1        0.0000
     37 H           0.9207   -1.1759   -0.5926 H       1  UNL1        0.0000
     38 C           2.1387   -1.8183    1.0361 C.ar    1  UNL1        0.0000
     39 C          -0.7026   -0.8744    1.7464 C.3     1  UNL1        0.0000
     40 H          -1.0366   -1.5936    1.0065 H       1  UNL1        0.0000
     41 H          -0.6358    0.0941    1.2662 H       1  UNL1        0.0000
     42 H          -1.4680   -0.8162    2.5117 H       1  UNL1        0.0000
     43 C           0.5203   -3.2053    3.2032 C.3     1  UNL1        0.0000
     44 H          -0.1311   -3.7220    2.5054 H       1  UNL1        0.0000
     45 H           0.0054   -3.1378    4.1551 H       1  UNL1        0.0000
     46 H           1.4064   -3.8099    3.3457 H       1  UNL1        0.0000
@<TRIPOS>BOND
     1    35    34    1
     2    33    32    1
     3    34    32   ar
     4    34    36   ar
     5    29    26    1
     6    32    31   ar
     7    37    36    1
     8    36    38   ar
     9    28    26    1
    10    26    27    1
    11    26    21    1
    12    23    22    1
    13    31    21    1
    14    31    30   ar
    15    21    22    1
    16    21    19    1
    17    40    39    1
    18    38    30   ar
    19    38     2    1
    20    22    25    1
    21    22    24    1
    22    41    39    1
    23    30     3    1
    24    39    42    1
    25    39     2    1
    26    18    17    1
    27    19    17   ar
    28    19    20   ar
    29    44    43    1
    30     2    43    1
    31     3    20    1
    32    17    15   ar
    33    20    12   ar
    34    43    46    1
    35    43    45    1
    36    15    16    1
    37    15    13   ar
    38    12    13   ar
    39    12     1    1
    40    13    14    1
    41     5     4    1
    42     1     4    1
    43     1     8    1
    44     4     6    1
    45     4     7    1
    46    10     8    1
    47     8     9    1
    48     8    11    1
