@<TRIPOS>MOLECULE
1,2
 28 28 0 0 0
SMALL
GASTEIGER

@<TRIPOS>ATOM
      1 SI         12.2972    2.6816    7.9148 Si      1  UNL1        0.0000
      2 SI          9.8286    3.0505   10.1858 Si      1  UNL1        0.0000
      3 C          12.2614    1.9769    6.1138 C.3     1  UNL1        0.0000
      4 C          14.2088    2.7772    8.2028 C.3     1  UNL1        0.0000
      5 C          11.7376    1.2182    9.0166 C.ar    1  UNL1        0.0000
      6 C          10.7476    1.3830    9.9887 C.ar    1  UNL1        0.0000
      7 C          10.4012    0.3014   10.7904 C.ar    1  UNL1        0.0000
      8 C          11.0120   -0.9303   10.6442 C.ar    1  UNL1        0.0000
      9 C          11.9861   -1.0967    9.6750 C.ar    1  UNL1        0.0000
     10 C          12.3397   -0.0268    8.8739 C.ar    1  UNL1        0.0000
     11 C           8.0060    2.5895    9.7222 C.3     1  UNL1        0.0000
     12 C           9.6451    3.3115   12.0950 C.3     1  UNL1        0.0000
     13 H           9.6385    0.4253   11.5458 H       1  UNL1        0.0000
     14 H          12.4683   -2.0564    9.5472 H       1  UNL1        0.0000
     15 H          13.1023   -0.1640    8.1204 H       1  UNL1        0.0000
     16 H          10.7292   -1.7584   11.2799 H       1  UNL1        0.0000
     17 H          11.2895    1.5750    5.8481 H       1  UNL1        0.0000
     18 H          12.9772    1.1649    6.0390 H       1  UNL1        0.0000
     19 H          12.5439    2.7202    5.3741 H       1  UNL1        0.0000
     20 H          14.4598    3.1078    9.2057 H       1  UNL1        0.0000
     21 H          14.6589    1.7997    8.0610 H       1  UNL1        0.0000
     22 H          14.6814    3.4591    7.5018 H       1  UNL1        0.0000
     23 H           7.9228    2.2449    8.6960 H       1  UNL1        0.0000
     24 H           7.6505    1.7874   10.3621 H       1  UNL1        0.0000
     25 H           7.3318    3.4319    9.8458 H       1  UNL1        0.0000
     26 H          10.5762    3.1410   12.6254 H       1  UNL1        0.0000
     27 H           8.9197    2.6034   12.4817 H       1  UNL1        0.0000
     28 H           9.2828    4.3043   12.3440 H       1  UNL1        0.0000
@<TRIPOS>BOND
     1    19     3    1
     2    17     3    1
     3    18     3    1
     4     3     1    1
     5    22     4    1
     6     1     4    1
     7     1     5    1
     8    21     4    1
     9    15    10    1
    10     4    20    1
    11    23    11    1
    12    10     5   ar
    13    10     9   ar
    14     5     6   ar
    15    14     9    1
    16     9     8   ar
    17    11    25    1
    18    11     2    1
    19    11    24    1
    20     6     2    1
    21     6     7   ar
    22     2    12    1
    23     8     7   ar
    24     8    16    1
    25     7    13    1
    26    12    28    1
    27    12    27    1
    28    12    26    1
