@<TRIPOS>MOLECULE
1,2
 30 30 0 0 0
SMALL
GASTEIGER

@<TRIPOS>ATOM
      1 SI          2.8293    8.7420    2.3355 Si      1  UNL1        0.0000
      2 SI          3.2362    8.5733    5.0754 Si      1  UNL1        0.0000
      3 N           2.9803    9.7574    3.7777 N.pl3   1  UNL1        0.0000
      4 C           3.1712   11.1157    3.8173 C.ar    1  UNL1        0.0000
      5 C           2.8912   11.9227    2.7092 C.ar    1  UNL1        0.0000
      6 H           2.5297   11.4661    1.8046 H       1  UNL1        0.0000
      7 C           3.0691   13.2907    2.7526 C.ar    1  UNL1        0.0000
      8 H           2.8408   13.8827    1.8764 H       1  UNL1        0.0000
      9 C           3.5342   13.9090    3.9007 C.ar    1  UNL1        0.0000
     10 H           3.6715   14.9799    3.9333 H       1  UNL1        0.0000
     11 C           3.8258   13.1248    5.0037 C.ar    1  UNL1        0.0000
     12 H           4.2002   13.5850    5.9082 H       1  UNL1        0.0000
     13 C           3.6505   11.7564    4.9641 C.ar    1  UNL1        0.0000
     14 H           3.9027   11.1659    5.8270 H       1  UNL1        0.0000
     15 C           4.3665    9.1483    1.2373 C.3     1  UNL1        0.0000
     16 H           5.2860    8.8008    1.6938 H       1  UNL1        0.0000
     17 H           4.4459   10.2236    1.1208 H       1  UNL1        0.0000
     18 H           4.2899    8.7105    0.2469 H       1  UNL1        0.0000
     19 C           1.3405    9.2877    1.2148 C.3     1  UNL1        0.0000
     20 H           0.6727    8.4650    0.9860 H       1  UNL1        0.0000
     21 H           1.7166    9.6745    0.2726 H       1  UNL1        0.0000
     22 H           0.7578   10.0688    1.6882 H       1  UNL1        0.0000
     23 C           5.0496    8.7447    5.7345 C.3     1  UNL1        0.0000
     24 H           5.6003    7.8117    5.6903 H       1  UNL1        0.0000
     25 H           5.0645    9.0919    6.7629 H       1  UNL1        0.0000
     26 H           5.5840    9.4658    5.1269 H       1  UNL1        0.0000
     27 C           2.1608    9.1116    6.5934 C.3     1  UNL1        0.0000
     28 H           1.1362    9.3304    6.3153 H       1  UNL1        0.0000
     29 H           2.5714   10.0099    7.0400 H       1  UNL1        0.0000
     30 H           2.1553    8.3459    7.3620 H       1  UNL1        0.0000
@<TRIPOS>BOND
     1    18    15    1
     2    21    19    1
     3    20    19    1
     4    17    15    1
     5    19    22    1
     6    19     1    1
     7    15    16    1
     8    15     1    1
     9     6     5    1
    10     8     7    1
    11     1     3    1
    12     5     7   ar
    13     5     4   ar
    14     7     9   ar
    15     3     4    1
    16     3     2    1
    17     4    13   ar
    18     9    10    1
    19     9    11   ar
    20    13    11   ar
    21    13    14    1
    22    11    12    1
    23     2    23    1
    24     2    27    1
    25    26    23    1
    26    24    23    1
    27    23    25    1
    28    28    27    1
    29    27    29    1
    30    27    30    1
