@<TRIPOS>MOLECULE
2,3
 20 19 0 0 0
SMALL
GASTEIGER

@<TRIPOS>ATOM
      1 N          12.9987    7.4646    5.2207 N.3     1  UNL1        0.0000
      2 SI         11.6838    7.3792    6.3471 Si      1  UNL1        0.0000
      3 SI         14.1320    6.1347    5.4327 Si      1  UNL1        0.0000
      4 C           9.9833    7.1272    5.4818 C.3     1  UNL1        0.0000
      5 H           9.9758    6.2455    4.8498 H       1  UNL1        0.0000
      6 H           9.7554    7.9892    4.8620 H       1  UNL1        0.0000
      7 H           9.1831    7.0230    6.2076 H       1  UNL1        0.0000
      8 C          11.4985    9.1124    7.1655 C.3     1  UNL1        0.0000
      9 H          12.3699    9.3973    7.7458 H       1  UNL1        0.0000
     10 H          10.6283    9.1615    7.8104 H       1  UNL1        0.0000
     11 H          11.3650    9.8560    6.3868 H       1  UNL1        0.0000
     12 C          14.4579    5.4684    3.6542 C.3     1  UNL1        0.0000
     13 H          13.5451    5.1417    3.1704 H       1  UNL1        0.0000
     14 H          15.1681    4.6484    3.6485 H       1  UNL1        0.0000
     15 H          14.8819    6.2668    3.0544 H       1  UNL1        0.0000
     16 C          15.8454    6.9359    5.8410 C.3     1  UNL1        0.0000
     17 H          15.8159    7.5322    6.7476 H       1  UNL1        0.0000
     18 H          16.1564    7.5868    5.0295 H       1  UNL1        0.0000
     19 H          16.6157    6.1803    5.9662 H       1  UNL1        0.0000
     20 H          13.0823    8.1659    4.5024 H       1  UNL1        0.0000
@<TRIPOS>BOND
     1    15    12    1
     2    13    12    1
     3    14    12    1
     4    12     3    1
     5    20     1    1
     6     5     4    1
     7     6     4    1
     8    18    16    1
     9     1     3    1
    10     1     2    1
    11     3    16    1
    12     4     7    1
    13     4     2    1
    14    16    19    1
    15    16    17    1
    16     2     8    1
    17    11     8    1
    18     8     9    1
    19     8    10    1
