@<TRIPOS>MOLECULE
1,2
 46 48 0 0 0
SMALL
GASTEIGER

@<TRIPOS>ATOM
      1 SI          5.0907   -1.6472   10.6634 Si      1  UNL1        0.0000
      2 SI          5.1009    1.5325    8.1558 Si      1  UNL1        0.0000
      3 O           3.7772   -1.1114    8.0669 O.3     1  UNL1        0.0000
      4 C           5.3468   -2.3331   12.4545 C.3     1  UNL1        0.0000
      5 H           5.4585   -3.4123   12.4308 H       1  UNL1        0.0000
      6 H           4.5152   -2.1013   13.1112 H       1  UNL1        0.0000
      7 H           6.2493   -1.9246   12.8965 H       1  UNL1        0.0000
      8 C           6.5061   -2.4603    9.6207 C.3     1  UNL1        0.0000
      9 H           7.4797   -2.0624    9.8863 H       1  UNL1        0.0000
     10 H           6.3546   -2.2784    8.5627 H       1  UNL1        0.0000
     11 H           6.5276   -3.5360    9.7760 H       1  UNL1        0.0000
     12 C           3.5128   -2.4869    9.9564 C.ar    1  UNL1        0.0000
     13 C           2.7786   -3.4558   10.6266 C.ar    1  UNL1        0.0000
     14 H           3.1067   -3.7858   11.5994 H       1  UNL1        0.0000
     15 C           1.6300   -3.9923   10.0731 C.ar    1  UNL1        0.0000
     16 H           1.0657   -4.7388   10.6128 H       1  UNL1        0.0000
     17 C           1.1993   -3.5818    8.8239 C.ar    1  UNL1        0.0000
     18 H           0.3045   -4.0182    8.4101 H       1  UNL1        0.0000
     19 C           1.9117   -2.6287    8.1102 C.ar    1  UNL1        0.0000
     20 C           3.0553   -2.0892    8.6976 C.ar    1  UNL1        0.0000
     21 C           1.5689   -2.1822    6.7000 C.3     1  UNL1        0.0000
     22 C           2.4946   -2.9460    5.7314 C.3     1  UNL1        0.0000
     23 H           2.3126   -2.6232    4.7084 H       1  UNL1        0.0000
     24 H           2.3098   -4.0159    5.8040 H       1  UNL1        0.0000
     25 H           3.5376   -2.7576    5.9736 H       1  UNL1        0.0000
     26 C           0.1159   -2.4733    6.3260 C.3     1  UNL1        0.0000
     27 H          -0.5673   -1.9489    6.9902 H       1  UNL1        0.0000
     28 H          -0.0818   -3.5403    6.3837 H       1  UNL1        0.0000
     29 H          -0.0786   -2.1661    5.3020 H       1  UNL1        0.0000
     30 C           3.0597   -0.2666    7.2625 C.ar    1  UNL1        0.0000
     31 C           1.9158   -0.7074    6.5984 C.ar    1  UNL1        0.0000
     32 C           1.2069    0.2125    5.8391 C.ar    1  UNL1        0.0000
     33 H           0.3117   -0.0843    5.3168 H       1  UNL1        0.0000
     34 C           1.6417    1.5219    5.7345 C.ar    1  UNL1        0.0000
     35 H           1.0799    2.2240    5.1356 H       1  UNL1        0.0000
     36 C           2.7912    1.9301    6.3868 C.ar    1  UNL1        0.0000
     37 H           3.1226    2.9521    6.2948 H       1  UNL1        0.0000
     38 C           3.5220    1.0487    7.1716 C.ar    1  UNL1        0.0000
     39 C           6.5131    0.6979    7.1251 C.3     1  UNL1        0.0000
     40 H           6.5468    1.1070    6.1186 H       1  UNL1        0.0000
     41 H           6.3483   -0.3708    7.0460 H       1  UNL1        0.0000
     42 H           7.4855    0.8474    7.5819 H       1  UNL1        0.0000
     43 C           5.3684    3.4320    7.9002 C.3     1  UNL1        0.0000
     44 H           6.2793    3.7601    8.3894 H       1  UNL1        0.0000
     45 H           4.5456    4.0233    8.2875 H       1  UNL1        0.0000
     46 H           5.4696    3.6582    6.8436 H       1  UNL1        0.0000
@<TRIPOS>BOND
     1    23    22    1
     2    35    34    1
     3    29    26    1
     4    33    32    1
     5    22    24    1
     6    22    25    1
     7    22    21    1
     8    34    32   ar
     9    34    36   ar
    10    32    31   ar
    11    40    39    1
    12    37    36    1
    13    26    28    1
    14    26    21    1
    15    26    27    1
    16    36    38   ar
    17    31    21    1
    18    31    30   ar
    19    21    19    1
    20    46    43    1
    21    41    39    1
    22    39    42    1
    23    39     2    1
    24    38    30   ar
    25    38     2    1
    26    30     3    1
    27    43     2    1
    28    43    45    1
    29    43    44    1
    30     3    20    1
    31    19    20   ar
    32    19    17   ar
    33    18    17    1
    34    10     8    1
    35    20    12   ar
    36    17    15   ar
    37     8    11    1
    38     8     9    1
    39     8     1    1
    40    12    13   ar
    41    12     1    1
    42    15    16    1
    43    15    13   ar
    44    13    14    1
    45     1     4    1
    46     5     4    1
    47     4     7    1
    48     4     6    1
