@<TRIPOS>MOLECULE
1,2
 37 36 0 0 0
SMALL
GASTEIGER

@<TRIPOS>ATOM
      1 SI          0.6558   -2.6761    4.8724 Si      1  UNL1        0.0000
      2 SI          2.2567   -2.1708    2.2051 Si      1  UNL1        0.0000
      3 SI          4.3043   -3.4061    2.5474 Si      1  UNL1        0.0000
      4 C           1.4018   -4.0012    6.0965 C.3     1  UNL1        0.0000
      5 C          -1.0767   -2.3439    5.6952 C.3     1  UNL1        0.0000
      6 C           0.2643   -3.7656    3.3493 C.2     1  UNL1        0.0000
      7 C          -0.7538   -4.8609    3.4688 C.3     1  UNL1        0.0000
      8 C           0.9255   -3.5420    2.2111 C.2     1  UNL1        0.0000
      9 C           0.6861   -4.3755    0.9851 C.3     1  UNL1        0.0000
     10 C           2.2061   -1.5171    0.3805 C.3     1  UNL1        0.0000
     11 C           4.0803   -5.2864    2.2773 C.3     1  UNL1        0.0000
     12 C           4.7257   -3.1743    4.4130 C.3     1  UNL1        0.0000
     13 C           5.8824   -2.9346    1.5533 C.3     1  UNL1        0.0000
     14 H           0.7835   -4.8930    6.0734 H       1  UNL1        0.0000
     15 H           2.4058   -4.2990    5.8152 H       1  UNL1        0.0000
     16 H           1.4256   -3.6511    7.1244 H       1  UNL1        0.0000
     17 H          -1.1920   -2.9133    6.6128 H       1  UNL1        0.0000
     18 H          -1.2276   -1.2978    5.9312 H       1  UNL1        0.0000
     19 H          -1.8731   -2.6428    5.0237 H       1  UNL1        0.0000
     20 H          -1.1649   -4.9151    4.4727 H       1  UNL1        0.0000
     21 H          -1.5751   -4.6954    2.7697 H       1  UNL1        0.0000
     22 H          -0.3105   -5.8285    3.2256 H       1  UNL1        0.0000
     23 H          -0.3446   -4.2636    0.6446 H       1  UNL1        0.0000
     24 H           1.3475   -4.0934    0.1721 H       1  UNL1        0.0000
     25 H           0.8420   -5.4333    1.2025 H       1  UNL1        0.0000
     26 H           2.7211   -0.5740    0.2580 H       1  UNL1        0.0000
     27 H           2.6754   -2.2297   -0.2905 H       1  UNL1        0.0000
     28 H           1.1810   -1.3785    0.0557 H       1  UNL1        0.0000
     29 H           3.2114   -5.6417    2.8224 H       1  UNL1        0.0000
     30 H           3.9241   -5.5184    1.2287 H       1  UNL1        0.0000
     31 H           4.9417   -5.8568    2.6158 H       1  UNL1        0.0000
     32 H           4.5208   -4.0807    4.9752 H       1  UNL1        0.0000
     33 H           5.7663   -2.9162    4.5928 H       1  UNL1        0.0000
     34 H           4.1007   -2.3800    4.8377 H       1  UNL1        0.0000
     35 H           6.6905   -3.6364    1.7425 H       1  UNL1        0.0000
     36 H           5.6863   -2.9462    0.4856 H       1  UNL1        0.0000
     37 H           6.2486   -1.9436    1.8048 H       1  UNL1        0.0000
@<TRIPOS>BOND
     1    27    10    1
     2    28    10    1
     3    24     9    1
     4    26    10    1
     5    10     2    1
     6    36    13    1
     7    23     9    1
     8     9    25    1
     9     9     8    1
    10    30    11    1
    11    13    35    1
    12    13    37    1
    13    13     3    1
    14     2     8    1
    15     2     3    1
    16     8     6    2
    17    11     3    1
    18    11    31    1
    19    11    29    1
    20     3    12    1
    21    21     7    1
    22    22     7    1
    23     6     7    1
    24     6     1    1
    25     7    20    1
    26    12    33    1
    27    12    34    1
    28    12    32    1
    29     1     5    1
    30     1     4    1
    31    19     5    1
    32     5    18    1
    33     5    17    1
    34    15     4    1
    35    14     4    1
    36     4    16    1
