@<TRIPOS>MOLECULE
1,2
 24 23 0 0 0
SMALL
GASTEIGER

@<TRIPOS>ATOM
      1 SI          3.0434   -0.1006    5.8162 Si      1  UNL1        0.0000
      2 SI          2.9991   -0.3781    2.6428 Si      1  UNL1        0.0000
      3 C           1.9938   -1.1516    7.0823 C.3     1  UNL1        0.0000
      4 C           4.3091    0.7580    7.0155 C.3     1  UNL1        0.0000
      5 C           4.1855   -1.4169    4.9854 C.3     1  UNL1        0.0000
      6 C           3.5852   -1.8991    3.6785 C.3     1  UNL1        0.0000
      7 C           2.0652   -1.2322    1.1554 C.3     1  UNL1        0.0000
      8 C           4.6411    0.1998    1.7852 C.3     1  UNL1        0.0000
      9 H           0.9937   -0.7650    7.2471 H       1  UNL1        0.0000
     10 H           1.8986   -2.1764    6.7384 H       1  UNL1        0.0000
     11 H           2.4963   -1.1796    8.0444 H       1  UNL1        0.0000
     12 H           4.8760   -0.0060    7.5387 H       1  UNL1        0.0000
     13 H           5.0169    1.3706    6.4676 H       1  UNL1        0.0000
     14 H           3.8350    1.3824    7.7659 H       1  UNL1        0.0000
     15 H           5.1501   -0.9554    4.7782 H       1  UNL1        0.0000
     16 H           4.3753   -2.2533    5.6601 H       1  UNL1        0.0000
     17 H           2.7461   -2.5606    3.8939 H       1  UNL1        0.0000
     18 H           4.3102   -2.4881    3.1141 H       1  UNL1        0.0000
     19 H           1.0081   -0.9935    1.1183 H       1  UNL1        0.0000
     20 H           2.4983   -0.9422    0.2041 H       1  UNL1        0.0000
     21 H           2.1543   -2.3109    1.2354 H       1  UNL1        0.0000
     22 H           5.0535   -0.6088    1.1893 H       1  UNL1        0.0000
     23 H           4.5012    1.0548    1.1304 H       1  UNL1        0.0000
     24 H           5.3807    0.4765    2.5283 H       1  UNL1        0.0000
@<TRIPOS>BOND
     1    20     7    1
     2    19     7    1
     3    23     8    1
     4     7    21    1
     5     7     2    1
     6    22     8    1
     7     8    24    1
     8     8     2    1
     9     2     6    1
    10    18     6    1
    11     6    17    1
    12     6     5    1
    13    15     5    1
    14     5    16    1
    15     5     1    1
    16     1     4    1
    17     1     3    1
    18    13     4    1
    19    10     3    1
    20     4    12    1
    21     4    14    1
    22     3     9    1
    23     3    11    1
