@<TRIPOS>MOLECULE
1,2
 29 29 0 0 0
SMALL
GASTEIGER

@<TRIPOS>ATOM
      1 SI          5.9876   13.2399    4.3688 Si      1  UNL1        0.0000
      2 SI          7.1089   11.8474    6.8347 Si      1  UNL1        0.0000
      3 N           6.6398   13.5284    7.5770 N.pl3   1  UNL1        0.0000
      4 O           6.7124   14.3953    5.4734 O.3     1  UNL1        0.0000
      5 C           7.3444   13.4536    3.0298 C.3     1  UNL1        0.0000
      6 H           7.6325   14.4958    2.9380 H       1  UNL1        0.0000
      7 H           6.9852   13.1246    2.0621 H       1  UNL1        0.0000
      8 H           8.2338   12.8825    3.2658 H       1  UNL1        0.0000
      9 C           4.4945   14.2799    3.7285 C.3     1  UNL1        0.0000
     10 H           3.7168   14.3298    4.4838 H       1  UNL1        0.0000
     11 H           4.0602   13.8361    2.8408 H       1  UNL1        0.0000
     12 H           4.7862   15.2965    3.4805 H       1  UNL1        0.0000
     13 C           8.9386   12.2674    6.3888 C.3     1  UNL1        0.0000
     14 H           9.5387   12.5130    7.2619 H       1  UNL1        0.0000
     15 H           8.9824   13.1063    5.7044 H       1  UNL1        0.0000
     16 H           9.4074   11.4204    5.8991 H       1  UNL1        0.0000
     17 C           7.3016   10.7986    8.4397 C.3     1  UNL1        0.0000
     18 H           7.7315    9.8436    8.1675 H       1  UNL1        0.0000
     19 H           6.3420   10.5968    8.9035 H       1  UNL1        0.0000
     20 H           7.9634   11.2393    9.1804 H       1  UNL1        0.0000
     21 C           6.4097   14.5323    6.7154 C.3     1  UNL1        0.0000
     22 C           5.8607   15.7424    7.1738 C.2     1  UNL1        0.0000
     23 H           5.6956   16.5193    6.4454 H       1  UNL1        0.0000
     24 C           5.5338   15.8965    8.4973 C.2     1  UNL1        0.0000
     25 H           5.0998   16.8177    8.8548 H       1  UNL1        0.0000
     26 C           5.7606   14.8306    9.3674 C.2     1  UNL1        0.0000
     27 H           5.5095   14.8987   10.4129 H       1  UNL1        0.0000
     28 C           6.3081   13.6809    8.8603 C.2     1  UNL1        0.0000
     29 H           6.4971   12.8296    9.4893 H       1  UNL1        0.0000
@<TRIPOS>BOND
     1     7     5    1
     2    11     9    1
     3     6     5    1
     4     5     8    1
     5     5     1    1
     6    12     9    1
     7     9     1    1
     8     9    10    1
     9     1     4    1
    10     4    21    1
    11    15    13    1
    12    16    13    1
    13    13     2    1
    14    13    14    1
    15    23    22    1
    16    21    22    1
    17    21     3    1
    18     2     3    1
    19     2    17    1
    20    22    24    2
    21     3    28    1
    22    18    17    1
    23    17    19    1
    24    17    20    1
    25    24    25    1
    26    24    26    1
    27    28    26    2
    28    28    29    1
    29    26    27    1
