@<TRIPOS>MOLECULE
1,2
 25 24 0 0 0
SMALL
GASTEIGER

@<TRIPOS>ATOM
      1 SI          0.2713    7.9515   10.2328 Si      1  UNL1        0.0000
      2 SI         -2.0156    9.2363    8.6045 Si      1  UNL1        0.0000
      3 O           1.0750    8.4172    8.6584 O.3     1  UNL1        0.0000
      4 O          -0.5819    9.3401    7.4771 O.3     1  UNL1        0.0000
      5 C           0.9231    9.4076   11.3058 C.3     1  UNL1        0.0000
      6 C           1.4591    6.4853   10.5950 C.3     1  UNL1        0.0000
      7 C          -3.3273    9.1618    7.2026 C.3     1  UNL1        0.0000
      8 C          -2.0105   11.0655    9.1973 C.3     1  UNL1        0.0000
      9 C           0.5646    8.8538    7.6025 C.3     1  UNL1        0.0000
     10 C           1.4093    8.7822    6.3575 C.3     1  UNL1        0.0000
     11 H           0.7222    9.2049   12.3514 H       1  UNL1        0.0000
     12 H           1.9941    9.5442   11.1921 H       1  UNL1        0.0000
     13 H           0.4382   10.3446   11.0566 H       1  UNL1        0.0000
     14 H           1.2963    6.1177   11.6018 H       1  UNL1        0.0000
     15 H           1.2729    5.6621    9.9140 H       1  UNL1        0.0000
     16 H           2.5039    6.7664   10.5050 H       1  UNL1        0.0000
     17 H          -3.1709    9.9259    6.4474 H       1  UNL1        0.0000
     18 H          -3.3098    8.1952    6.7111 H       1  UNL1        0.0000
     19 H          -4.3198    9.2977    7.6171 H       1  UNL1        0.0000
     20 H          -1.1307   11.2992    9.7861 H       1  UNL1        0.0000
     21 H          -2.0458   11.7583    8.3621 H       1  UNL1        0.0000
     22 H          -2.8790   11.2494    9.8189 H       1  UNL1        0.0000
     23 H           2.4611    8.7099    6.6159 H       1  UNL1        0.0000
     24 H           1.1152    7.8830    5.8174 H       1  UNL1        0.0000
     25 H           1.2194    9.6411    5.7207 H       1  UNL1        0.0000
@<TRIPOS>BOND
     1    25    10    1
     2    24    10    1
     3    10    23    1
     4    10     9    1
     5    17     7    1
     6    18     7    1
     7     7    19    1
     8     7     2    1
     9     4     9    1
    10     4     2    1
    11     9     3    1
    12    21     8    1
    13     2     8    1
    14     3     1    1
    15     8    20    1
    16     8    22    1
    17    15     6    1
    18     1     6    1
    19     1     5    1
    20    16     6    1
    21     6    14    1
    22    13     5    1
    23    12     5    1
    24     5    11    1
