@<TRIPOS>MOLECULE
1,15
 28 28 0 0 0
SMALL
GASTEIGER

@<TRIPOS>ATOM
      1 SI         21.9641    9.1857    9.0641 Si      1  UNL1        0.0000
      2 C          22.6884    8.7056   10.7627 C.ar    1  UNL1        0.0000
      3 C          22.1164    9.0723   11.9722 C.ar    1  UNL1        0.0000
      4 C          22.6924    8.7014   13.1748 C.ar    1  UNL1        0.0000
      5 C          20.1114    8.6249    9.0913 C.3     1  UNL1        0.0000
      6 C          21.7651   11.1090    9.0960 C.3     1  UNL1        0.0000
      7 H          21.2068    9.6574   11.9749 H       1  UNL1        0.0000
      8 H          22.2361    8.9940   14.1114 H       1  UNL1        0.0000
      9 H          19.5956    8.9305    8.1855 H       1  UNL1        0.0000
     10 H          19.5870    9.0656    9.9323 H       1  UNL1        0.0000
     11 H          20.0244    7.5485    9.1788 H       1  UNL1        0.0000
     12 H          21.4186   11.4831    8.1369 H       1  UNL1        0.0000
     13 H          22.7074   11.5948    9.3197 H       1  UNL1        0.0000
     14 H          21.0483   11.4172    9.8499 H       1  UNL1        0.0000
     15 SI         24.5872    7.4707    9.0641 Si      1  UNL1        0.0000
     16 C          23.8629    7.9506   10.7628 C.ar    1  UNL1        0.0000
     17 C          24.4346    7.5836   11.9723 C.ar    1  UNL1        0.0000
     18 C          23.8580    7.9538   13.1749 C.ar    1  UNL1        0.0000
     19 C          26.4398    8.0319    9.0916 C.3     1  UNL1        0.0000
     20 C          24.7865    5.5475    9.0959 C.3     1  UNL1        0.0000
     21 H          25.3443    6.9986   11.9751 H       1  UNL1        0.0000
     22 H          24.3143    7.6614   14.1115 H       1  UNL1        0.0000
     23 H          26.9556    7.7265    8.1857 H       1  UNL1        0.0000
     24 H          26.9643    7.5910    9.9325 H       1  UNL1        0.0000
     25 H          26.5268    9.1082    9.1793 H       1  UNL1        0.0000
     26 H          25.1331    5.1734    8.1368 H       1  UNL1        0.0000
     27 H          23.8442    5.0617    9.3194 H       1  UNL1        0.0000
     28 H          25.5032    5.2394    9.8498 H       1  UNL1        0.0000
@<TRIPOS>BOND
     1    26    20    1
     2    12     6    1
     3     9     5    1
     4    23    19    1
     5    15    19    1
     6    15    20    1
     7    15    16    1
     8     1     5    1
     9     1     6    1
    10     1     2    1
    11     5    11    1
    12     5    10    1
    13    19    25    1
    14    19    24    1
    15    20    27    1
    16    20    28    1
    17     6    13    1
    18     6    14    1
    19     2    16   ar
    20     2     3   ar
    21    16    17   ar
    22     3     7    1
    23     3     4   ar
    24    17    21    1
    25    17    18   ar
    26     4    18   ar
    27     4     8    1
    28    18    22    1
