@<TRIPOS>MOLECULE
1,2
 28 28 0 0 0
SMALL
GASTEIGER

@<TRIPOS>ATOM
      1 SI          7.4440    4.3631    7.4066 Si      1  UNL1        0.0000
      2 SI          8.1948    3.4410    4.4810 Si      1  UNL1        0.0000
      3 C           8.8664    5.2793    6.5314 C.ar    1  UNL1        0.0000
      4 C           9.5682    6.3243    7.1150 C.ar    1  UNL1        0.0000
      5 C          10.6096    6.9448    6.4474 C.ar    1  UNL1        0.0000
      6 C          10.9614    6.5174    5.1782 C.ar    1  UNL1        0.0000
      7 C          10.2637    5.4784    4.5875 C.ar    1  UNL1        0.0000
      8 C           9.2164    4.8532    5.2489 C.ar    1  UNL1        0.0000
      9 C           6.1610    5.6962    7.9678 C.3     1  UNL1        0.0000
     10 C           8.1453    3.8149    9.1202 C.3     1  UNL1        0.0000
     11 C           7.5628    4.1172    2.7868 C.3     1  UNL1        0.0000
     12 C           9.4350    2.0869    3.8738 C.3     1  UNL1        0.0000
     13 H           9.2968    6.6592    8.1067 H       1  UNL1        0.0000
     14 H          11.1480    7.7588    6.9140 H       1  UNL1        0.0000
     15 H          11.7766    6.9954    4.6518 H       1  UNL1        0.0000
     16 H          10.5393    5.1479    3.5955 H       1  UNL1        0.0000
     17 H           6.6270    6.4088    8.6393 H       1  UNL1        0.0000
     18 H           5.3293    5.2442    8.5005 H       1  UNL1        0.0000
     19 H           5.7626    6.2523    7.1282 H       1  UNL1        0.0000
     20 H           8.9494    3.0973    9.0157 H       1  UNL1        0.0000
     21 H           7.3736    3.3685    9.7392 H       1  UNL1        0.0000
     22 H           8.5406    4.6705    9.6570 H       1  UNL1        0.0000
     23 H           6.8942    4.9594    2.9141 H       1  UNL1        0.0000
     24 H           7.0367    3.3511    2.2262 H       1  UNL1        0.0000
     25 H           8.3968    4.4523    2.1797 H       1  UNL1        0.0000
     26 H          10.0311    1.6908    4.6867 H       1  UNL1        0.0000
     27 H          10.1180    2.5021    3.1411 H       1  UNL1        0.0000
     28 H           8.9149    1.2594    3.3998 H       1  UNL1        0.0000
@<TRIPOS>BOND
     1    25    11    1
     2    24    11    1
     3    11    23    1
     4    11     2    1
     5    27    12    1
     6    28    12    1
     7    16     7    1
     8    12     2    1
     9    12    26    1
    10     2     8    1
    11     7     6   ar
    12     7     8   ar
    13    15     6    1
    14     6     5   ar
    15     8     3   ar
    16     5    14    1
    17     5     4   ar
    18     3     4   ar
    19     3     1    1
    20     4    13    1
    21    19     9    1
    22     1     9    1
    23     1    10    1
    24     9    18    1
    25     9    17    1
    26    20    10    1
    27    10    22    1
    28    10    21    1
