@<TRIPOS>MOLECULE
1,2
 28 28 0 0 0
SMALL
GASTEIGER

@<TRIPOS>ATOM
      1 SI         -1.4705    7.9244   14.4431 Si      1  UNL1        0.0000
      2 SI         -3.5623   10.2543   13.6974 Si      1  UNL1        0.0000
      3 C          -1.6405    8.4510   12.6236 C.ar    1  UNL1        0.0000
      4 C          -2.5447    9.4596   12.3012 C.ar    1  UNL1        0.0000
      5 C          -2.6875    9.8515   10.9761 C.ar    1  UNL1        0.0000
      6 H          -3.3897   10.6327   10.7219 H       1  UNL1        0.0000
      7 C          -1.9418    9.2528    9.9776 C.ar    1  UNL1        0.0000
      8 H          -2.0602    9.5655    8.9498 H       1  UNL1        0.0000
      9 C          -1.0420    8.2491   10.2984 C.ar    1  UNL1        0.0000
     10 H          -0.4574    7.7775    9.5212 H       1  UNL1        0.0000
     11 C          -0.8958    7.8528   11.6149 C.ar    1  UNL1        0.0000
     12 H          -0.1943    7.0685   11.8611 H       1  UNL1        0.0000
     13 C           0.4063    8.0916   14.8431 C.3     1  UNL1        0.0000
     14 H           0.6616    7.5979   15.7764 H       1  UNL1        0.0000
     15 H           0.7039    9.1325   14.9299 H       1  UNL1        0.0000
     16 H           1.0100    7.6457   14.0593 H       1  UNL1        0.0000
     17 C          -1.8654    6.0395   14.4553 C.3     1  UNL1        0.0000
     18 H          -1.3016    5.5232   13.6848 H       1  UNL1        0.0000
     19 H          -2.9185    5.8522   14.2675 H       1  UNL1        0.0000
     20 H          -1.6160    5.5830   15.4087 H       1  UNL1        0.0000
     21 C          -3.2404   12.1474   13.5450 C.3     1  UNL1        0.0000
     22 H          -3.9692   12.7226   14.1090 H       1  UNL1        0.0000
     23 H          -3.2980   12.4680   12.5099 H       1  UNL1        0.0000
     24 H          -2.2544   12.4152   13.9136 H       1  UNL1        0.0000
     25 C          -5.3998    9.9711   13.1958 C.3     1  UNL1        0.0000
     26 H          -5.6736    8.9223   13.2633 H       1  UNL1        0.0000
     27 H          -5.5714   10.2858   12.1714 H       1  UNL1        0.0000
     28 H          -6.0810   10.5295   13.8312 H       1  UNL1        0.0000
@<TRIPOS>BOND
     1     8     7    1
     2    10     9    1
     3     7     9   ar
     4     7     5   ar
     5     9    11   ar
     6     6     5    1
     7     5     4   ar
     8    11    12    1
     9    11     3   ar
    10    27    25    1
    11     4     3   ar
    12     4     2    1
    13    23    21    1
    14     3     1    1
    15    25    26    1
    16    25     2    1
    17    25    28    1
    18    21     2    1
    19    21    24    1
    20    21    22    1
    21    18    17    1
    22    16    13    1
    23    19    17    1
    24     1    17    1
    25     1    13    1
    26    17    20    1
    27    13    15    1
    28    13    14    1
