@<TRIPOS>MOLECULE
1,2
 28 28 0 0 0
SMALL
GASTEIGER

@<TRIPOS>ATOM
      1 SI         -4.5166   10.6698   17.6777 Si      1  UNL1        0.0000
      2 SI         -2.4248    8.3401   18.4232 Si      1  UNL1        0.0000
      3 C          -4.3471   10.1429   19.4970 C.ar    1  UNL1        0.0000
      4 C          -3.4429    9.1342   19.8194 C.ar    1  UNL1        0.0000
      5 C          -3.3000    8.7424   21.1446 C.ar    1  UNL1        0.0000
      6 H          -2.5977    7.9613   21.3989 H       1  UNL1        0.0000
      7 C          -4.0456    9.3413   22.1431 C.ar    1  UNL1        0.0000
      8 H          -3.9273    9.0286   23.1709 H       1  UNL1        0.0000
      9 C          -4.9453   10.3450   21.8223 C.ar    1  UNL1        0.0000
     10 H          -5.5301   10.8165   22.5995 H       1  UNL1        0.0000
     11 C          -5.0917   10.7412   20.5058 C.ar    1  UNL1        0.0000
     12 H          -5.7932   11.5255   20.2596 H       1  UNL1        0.0000
     13 C          -6.3934   10.5023   17.2777 C.3     1  UNL1        0.0000
     14 H          -6.6489   10.9960   16.3444 H       1  UNL1        0.0000
     15 H          -6.6912    9.4615   17.1908 H       1  UNL1        0.0000
     16 H          -6.9973   10.9482   18.0614 H       1  UNL1        0.0000
     17 C          -4.1221   12.5547   17.6654 C.3     1  UNL1        0.0000
     18 H          -4.6859   13.0709   18.4359 H       1  UNL1        0.0000
     19 H          -3.0689   12.7418   17.8532 H       1  UNL1        0.0000
     20 H          -4.3715   13.0111   16.7119 H       1  UNL1        0.0000
     21 C          -2.7471    6.4469   18.5757 C.3     1  UNL1        0.0000
     22 H          -2.0183    5.8717   18.0118 H       1  UNL1        0.0000
     23 H          -2.6895    6.1262   19.6108 H       1  UNL1        0.0000
     24 H          -3.7330    6.1789   18.2072 H       1  UNL1        0.0000
     25 C          -0.5874    8.6229   18.9251 C.3     1  UNL1        0.0000
     26 H          -0.3138    9.6717   18.8575 H       1  UNL1        0.0000
     27 H          -0.4159    8.3081   19.9495 H       1  UNL1        0.0000
     28 H           0.0937    8.0644   18.2896 H       1  UNL1        0.0000
@<TRIPOS>BOND
     1    14    13    1
     2    20    17    1
     3    15    13    1
     4    13     1    1
     5    13    16    1
     6    17     1    1
     7    17    19    1
     8    17    18    1
     9     1     3    1
    10    22    21    1
    11    24    21    1
    12    28    25    1
    13     2    21    1
    14     2    25    1
    15     2     4    1
    16    21    23    1
    17    26    25    1
    18    25    27    1
    19     3     4   ar
    20     3    11   ar
    21     4     5   ar
    22    12    11    1
    23    11     9   ar
    24     5     6    1
    25     5     7   ar
    26     9     7   ar
    27     9    10    1
    28     7     8    1
