@<TRIPOS>MOLECULE
1,3,4,43
 78 77 0 0 0
SMALL
GASTEIGER

@<TRIPOS>ATOM
      1 P           1.5099    5.9948    8.2676 P.3     1  UNL1        0.0000
      2 SI          1.4513    4.2842    4.4195 Si      1  UNL1        0.0000
      3 N           2.9709    4.1533    5.1648 N.3     1  UNL1        0.0000
      4 N           0.3945    4.4035    5.8555 N.3     1  UNL1        0.0000
      5 C           4.2654    4.0238    4.5449 C.3     1  UNL1        0.0000
      6 C           5.2409    3.4216    5.5661 C.3     1  UNL1        0.0000
      7 H           6.2712    3.5427    5.2398 H       1  UNL1        0.0000
      8 H           5.1062    3.9213    6.5276 H       1  UNL1        0.0000
      9 C           4.7836    5.4131    4.1260 C.3     1  UNL1        0.0000
     10 H           5.7544    5.3339    3.6411 H       1  UNL1        0.0000
     11 H           4.8783    6.0535    4.9994 H       1  UNL1        0.0000
     12 H           4.0812    5.8715    3.4355 H       1  UNL1        0.0000
     13 C           1.1711    5.7953    3.2642 C.3     1  UNL1        0.0000
     14 H           1.7131    5.6298    2.3383 H       1  UNL1        0.0000
     15 H           1.5294    6.7328    3.6754 H       1  UNL1        0.0000
     16 H           0.1242    5.9217    3.0052 H       1  UNL1        0.0000
     17 C          -0.3218    5.6216    6.1205 C.3     1  UNL1        0.0000
     18 H          -1.3980    5.4919    5.9037 H       1  UNL1        0.0000
     19 H           0.0541    6.3815    5.4404 H       1  UNL1        0.0000
     20 C          -0.2025    6.1512    7.5610 C.3     1  UNL1        0.0000
     21 H          -0.8448    5.5575    8.2192 H       1  UNL1        0.0000
     22 H          -0.5484    7.1872    7.5973 H       1  UNL1        0.0000
     23 C           2.4199    7.5765    7.8329 C.3     1  UNL1        0.0000
     24 H           2.1875    8.3796    8.5409 H       1  UNL1        0.0000
     25 C           3.9041    7.2186    7.9093 C.3     1  UNL1        0.0000
     26 H           4.5258    8.0297    7.5316 H       1  UNL1        0.0000
     27 H           4.0759    6.3247    7.2919 H       1  UNL1        0.0000
     28 H           4.2131    6.9914    8.9267 H       1  UNL1        0.0000
     29 C           2.0949    8.0277    6.4160 C.3     1  UNL1        0.0000
     30 H           2.7333    8.8645    6.1307 H       1  UNL1        0.0000
     31 H           1.0595    8.3472    6.3190 H       1  UNL1        0.0000
     32 H           2.2822    7.2025    5.7286 H       1  UNL1        0.0000
     33 C           1.0508    6.3019   10.0730 C.3     1  UNL1        0.0000
     34 H           0.5139    5.3922   10.3767 H       1  UNL1        0.0000
     35 C           0.1308    7.4928   10.3316 C.3     1  UNL1        0.0000
     36 H           0.0070    7.6244   11.4063 H       1  UNL1        0.0000
     37 H          -0.8549    7.3437    9.8996 H       1  UNL1        0.0000
     38 H           0.5483    8.4136    9.9308 H       1  UNL1        0.0000
     39 C           2.3112    6.4149   10.9257 C.3     1  UNL1        0.0000
     40 H           2.0662    6.3227   11.9833 H       1  UNL1        0.0000
     41 H           2.7879    7.3811   10.7765 H       1  UNL1        0.0000
     42 H           3.0194    5.6313   10.6670 H       1  UNL1        0.0000
     43 P           2.0790    2.6280    7.9425 P.3     1  UNL1        0.0000
     44 H           5.0337    2.3635    5.6952 H       1  UNL1        0.0000
     45 C           4.2273    3.1297    3.2984 C.3     1  UNL1        0.0000
     46 H           5.2326    2.9778    2.9112 H       1  UNL1        0.0000
     47 H           3.7938    2.1631    3.5383 H       1  UNL1        0.0000
     48 H           3.6199    3.5938    2.5272 H       1  UNL1        0.0000
     49 C           0.7896    2.8678    3.2970 C.3     1  UNL1        0.0000
     50 H           1.1643    2.9957    2.2864 H       1  UNL1        0.0000
     51 H           1.1001    1.8825    3.6252 H       1  UNL1        0.0000
     52 H          -0.2957    2.8731    3.2391 H       1  UNL1        0.0000
     53 C          -0.2274    3.1966    6.3371 C.3     1  UNL1        0.0000
     54 H          -1.3194    3.3365    6.3871 H       1  UNL1        0.0000
     55 H          -0.0355    2.4047    5.6166 H       1  UNL1        0.0000
     56 C           0.2342    2.6945    7.7229 C.3     1  UNL1        0.0000
     57 H          -0.1289    3.3783    8.4940 H       1  UNL1        0.0000
     58 H          -0.2117    1.7108    7.8967 H       1  UNL1        0.0000
     59 C           2.4352    0.8413    7.4931 C.3     1  UNL1        0.0000
     60 H           1.7375    0.1956    8.0386 H       1  UNL1        0.0000
     61 C           3.8684    0.4698    7.8651 C.3     1  UNL1        0.0000
     62 H           4.1585   -0.4588    7.3746 H       1  UNL1        0.0000
     63 H           4.5536    1.2537    7.5516 H       1  UNL1        0.0000
     64 H           3.9771    0.3244    8.9362 H       1  UNL1        0.0000
     65 C           2.2158    0.6645    5.9950 C.3     1  UNL1        0.0000
     66 H           2.6462   -0.2753    5.6496 H       1  UNL1        0.0000
     67 H           1.1551    0.6544    5.7584 H       1  UNL1        0.0000
     68 H           2.6820    1.4885    5.4591 H       1  UNL1        0.0000
     69 C           2.1431    2.6175    9.8186 C.3     1  UNL1        0.0000
     70 H           1.5402    3.4959   10.0800 H       1  UNL1        0.0000
     71 C           1.5380    1.4026   10.5116 C.3     1  UNL1        0.0000
     72 H           1.4956    1.5791   11.5862 H       1  UNL1        0.0000
     73 H           0.5262    1.2125   10.1612 H       1  UNL1        0.0000
     74 H           2.1374    0.5116   10.3458 H       1  UNL1        0.0000
     75 C           3.5650    2.8895   10.3029 C.3     1  UNL1        0.0000
     76 H           3.5614    3.2007   11.3470 H       1  UNL1        0.0000
     77 H           4.1910    2.0065   10.2197 H       1  UNL1        0.0000
     78 H           4.0109    3.6790    9.6980 H       1  UNL1        0.0000
@<TRIPOS>BOND
     1    50    49    1
     2    14    13    1
     3    48    45    1
     4    46    45    1
     5    16    13    1
     6    52    49    1
     7    13    15    1
     8    13     2    1
     9    49    51    1
    10    49     2    1
    11    45    47    1
    12    45     5    1
    13    12     9    1
    14    10     9    1
    15     9     5    1
    16     9    11    1
    17     2     3    1
    18     2     4    1
    19     5     3    1
    20     5     6    1
    21     7     6    1
    22    19    17    1
    23    68    65    1
    24     6    44    1
    25     6     8    1
    26    55    53    1
    27    66    65    1
    28    32    29    1
    29    67    65    1
    30     4    17    1
    31     4    53    1
    32    18    17    1
    33    65    59    1
    34    17    20    1
    35    30    29    1
    36    31    29    1
    37    53    54    1
    38    53    56    1
    39    29    23    1
    40    27    25    1
    41    62    61    1
    42    59    61    1
    43    59    43    1
    44    59    60    1
    45    26    25    1
    46    63    61    1
    47    20    22    1
    48    20    21    1
    49    20     1    1
    50    56    58    1
    51    56    43    1
    52    56    57    1
    53    23    25    1
    54    23     1    1
    55    23    24    1
    56    61    64    1
    57    25    28    1
    58    43    69    1
    59     1    33    1
    60    78    75    1
    61    69    70    1
    62    69    75    1
    63    69    71    1
    64    37    35    1
    65    38    35    1
    66    33    35    1
    67    33    34    1
    68    33    39    1
    69    73    71    1
    70    77    75    1
    71    75    76    1
    72    35    36    1
    73    74    71    1
    74    71    72    1
    75    42    39    1
    76    41    39    1
    77    39    40    1
