@<TRIPOS>MOLECULE
1,2,7,8
 74 76 0 0 0
SMALL
GASTEIGER

@<TRIPOS>ATOM
      1 P           5.2427    0.3970   18.0846 P.3     1  UNL1        0.0000
      2 P           8.3021    4.7987   17.1817 P.3     1  UNL1        0.0000
      3 SI          4.1173    3.0631   17.1354 Si      1  UNL1        0.0000
      4 SI          8.0165   -0.2874   17.3090 Si      1  UNL1        0.0000
      5 SI          8.5996    2.1953   15.6283 Si      1  UNL1        0.0000
      6 SI          5.6283    5.4609   18.2704 Si      1  UNL1        0.0000
      7 N           5.4654    3.8057   17.8795 N.3     1  UNL1        0.0000
      8 N           7.9398    1.3881   16.9829 N.3     1  UNL1        0.0000
      9 C           4.7559    1.3379   16.5921 C.3     1  UNL1        0.0000
     10 C           6.2153   -0.9659   17.3047 C.3     1  UNL1        0.0000
     11 C           7.7781    3.9284   15.6590 C.3     1  UNL1        0.0000
     12 C           7.0676    6.1728   17.2094 C.3     1  UNL1        0.0000
     13 C           3.4756    3.9277   15.5524 C.3     1  UNL1        0.0000
     14 C           2.6300    2.8787   18.3292 C.3     1  UNL1        0.0000
     15 C           8.5625   -0.5282   19.1325 C.3     1  UNL1        0.0000
     16 C           9.0966   -1.3769   16.1816 C.3     1  UNL1        0.0000
     17 C           8.1809    1.4234   13.9275 C.3     1  UNL1        0.0000
     18 C          10.5068    2.3566   15.7284 C.3     1  UNL1        0.0000
     19 C           6.3044    5.5998   20.0607 C.3     1  UNL1        0.0000
     20 C           4.1039    6.5870   18.0896 C.3     1  UNL1        0.0000
     21 C           3.7307   -0.5517   18.5188 C.ar    1  UNL1        0.0000
     22 C           2.4949   -0.4709   17.8911 C.ar    1  UNL1        0.0000
     23 C           1.4336   -1.2428   18.3331 C.ar    1  UNL1        0.0000
     24 C           1.5885   -2.0990   19.4092 C.ar    1  UNL1        0.0000
     25 C           2.8136   -2.1770   20.0529 C.ar    1  UNL1        0.0000
     26 C           3.8694   -1.4035   19.6135 C.ar    1  UNL1        0.0000
     27 C           9.7737    5.7607   16.6488 C.ar    1  UNL1        0.0000
     28 C          10.3788    5.7198   15.3997 C.ar    1  UNL1        0.0000
     29 C          11.4923    6.4992   15.1354 C.ar    1  UNL1        0.0000
     30 C          12.0209    7.3229   16.1137 C.ar    1  UNL1        0.0000
     31 C          11.4352    7.3595   17.3695 C.ar    1  UNL1        0.0000
     32 C          10.3274    6.5786   17.6325 C.ar    1  UNL1        0.0000
     33 H           5.6754    1.4695   16.0197 H       1  UNL1        0.0000
     34 H           4.0591    0.7670   15.9781 H       1  UNL1        0.0000
     35 H           6.1297   -1.8634   17.9153 H       1  UNL1        0.0000
     36 H           5.8108   -1.1865   16.3171 H       1  UNL1        0.0000
     37 H           6.6988    3.8008   15.7551 H       1  UNL1        0.0000
     38 H           7.9649    4.5382   14.7749 H       1  UNL1        0.0000
     39 H           7.5129    7.0465   17.6827 H       1  UNL1        0.0000
     40 H           6.7948    6.4410   16.1889 H       1  UNL1        0.0000
     41 H           2.9450    4.8345   15.8163 H       1  UNL1        0.0000
     42 H           4.2835    4.2055   14.8837 H       1  UNL1        0.0000
     43 H           2.7887    3.2987   14.9954 H       1  UNL1        0.0000
     44 H           2.4153    3.8297   18.8052 H       1  UNL1        0.0000
     45 H           1.7283    2.5613   17.8159 H       1  UNL1        0.0000
     46 H           2.8354    2.1557   19.1136 H       1  UNL1        0.0000
     47 H           8.5053   -1.5712   19.4306 H       1  UNL1        0.0000
     48 H           9.5856   -0.2059   19.2921 H       1  UNL1        0.0000
     49 H           7.9178    0.0504   19.7981 H       1  UNL1        0.0000
     50 H           9.1757   -2.3870   16.5668 H       1  UNL1        0.0000
     51 H           8.6918   -1.4346   15.1788 H       1  UNL1        0.0000
     52 H          10.0969   -0.9694   16.1099 H       1  UNL1        0.0000
     53 H           7.1331    1.1531   13.8502 H       1  UNL1        0.0000
     54 H           8.4087    2.0972   13.1079 H       1  UNL1        0.0000
     55 H           8.7619    0.5215   13.7786 H       1  UNL1        0.0000
     56 H          10.9497    1.3926   15.9564 H       1  UNL1        0.0000
     57 H          10.9398    2.7008   14.7950 H       1  UNL1        0.0000
     58 H          10.8082    3.0509   16.5079 H       1  UNL1        0.0000
     59 H           5.5835    5.2494   20.7912 H       1  UNL1        0.0000
     60 H           7.2129    5.0028   20.1684 H       1  UNL1        0.0000
     61 H           6.5446    6.6280   20.3160 H       1  UNL1        0.0000
     62 H           4.2970    7.5790   18.4813 H       1  UNL1        0.0000
     63 H           3.8079    6.6908   17.0531 H       1  UNL1        0.0000
     64 H           3.2635    6.1736   18.6322 H       1  UNL1        0.0000
     65 H           2.3483    0.1979   17.0575 H       1  UNL1        0.0000
     66 H           0.4775   -1.1736   17.8337 H       1  UNL1        0.0000
     67 H           0.7572   -2.6984   19.7500 H       1  UNL1        0.0000
     68 H           2.9388   -2.8361   20.9000 H       1  UNL1        0.0000
     69 H           4.8259   -1.4501   20.1199 H       1  UNL1        0.0000
     70 H           9.9909    5.0762   14.6258 H       1  UNL1        0.0000
     71 H          11.9515    6.4617   14.1577 H       1  UNL1        0.0000
     72 H          12.8894    7.9292   15.9021 H       1  UNL1        0.0000
     73 H          11.8490    7.9926   18.1413 H       1  UNL1        0.0000
     74 H           9.8725    6.5932   18.6156 H       1  UNL1        0.0000
@<TRIPOS>BOND
     1    54    17    1
     2    55    17    1
     3    53    17    1
     4    17     5    1
     5    71    29    1
     6    70    28    1
     7    38    11    1
     8    57    18    1
     9    42    13    1
    10    43    13    1
    11    29    28   ar
    12    29    30   ar
    13    51    16    1
    14    28    27   ar
    15    13    41    1
    16    13     3    1
    17     5    11    1
    18     5    18    1
    19     5     8    1
    20    11    37    1
    21    11     2    1
    22    18    56    1
    23    18    58    1
    24    72    30    1
    25    34     9    1
    26    33     9    1
    27    52    16    1
    28    30    31   ar
    29    16    50    1
    30    16     4    1
    31    40    12    1
    32    36    10    1
    33     9     3    1
    34     9     1    1
    35    27     2    1
    36    27    32   ar
    37     8     4    1
    38    63    20    1
    39    65    22    1
    40     3     7    1
    41     3    14    1
    42     2    12    1
    43    12    39    1
    44    12     6    1
    45    10     4    1
    46    10    35    1
    47    10     1    1
    48     4    15    1
    49    31    32   ar
    50    31    73    1
    51    32    74    1
    52    45    14    1
    53    66    23    1
    54     7     6    1
    55    22    23   ar
    56    22    21   ar
    57     1    21    1
    58    20     6    1
    59    20    62    1
    60    20    64    1
    61     6    19    1
    62    14    44    1
    63    14    46    1
    64    23    24   ar
    65    21    26   ar
    66    15    48    1
    67    15    47    1
    68    15    49    1
    69    24    67    1
    70    24    25   ar
    71    26    25   ar
    72    26    69    1
    73    25    68    1
    74    19    60    1
    75    19    61    1
    76    19    59    1
