@<TRIPOS>MOLECULE
1,2,3,4
 72 78 0 0 0
SMALL
GASTEIGER

@<TRIPOS>ATOM
      1 P           7.1360    5.8783    4.6724 P.3     1  UNL1       -0.0382
      2 P           4.3633    4.5316    5.8749 P.3     1  UNL1       -0.0382
      3 N           4.4923    4.1434    3.2202 N.pl3   1  UNL1       -0.2164
      4 N           6.9447    4.1056    2.9073 N.pl3   1  UNL1       -0.2164
      5 C           3.9896    3.6648    7.4277 C.ar    1  UNL1       -0.0186
      6 C           7.5917    6.6588    6.2457 C.ar    1  UNL1       -0.0186
      7 C           8.2290    4.4773    2.7995 C.2     1  UNL1        0.0361
      8 C           3.1700    4.1784    3.4619 C.2     1  UNL1        0.0361
      9 C           6.2602    3.8991    1.7577 C.ar    1  UNL1        0.0840
     10 C           2.7844    4.3288    4.9044 C.3     1  UNL1        0.0158
     11 H           2.3053    3.4041    5.2469 H       1  UNL1        0.0380
     12 H           2.0882    5.1596    5.0587 H       1  UNL1        0.0380
     13 C           8.7360    5.1092    4.0550 C.3     1  UNL1        0.0158
     14 H           9.5576    5.8080    3.8799 H       1  UNL1        0.0380
     15 H           9.0261    4.3599    4.7958 H       1  UNL1        0.0380
     16 C           4.0432    7.2366    5.4517 C.ar    1  UNL1       -0.0538
     17 H           3.8951    6.9274    4.4252 H       1  UNL1        0.0624
     18 C           4.2358    6.2661    6.4315 C.ar    1  UNL1       -0.0186
     19 C           4.8742    3.9112    1.9326 C.ar    1  UNL1        0.0840
     20 C           8.8927    4.4189    1.5823 C.2     1  UNL1       -0.0418
     21 H           9.9381    4.6874    1.5413 H       1  UNL1        0.0634
     22 C           8.2291    4.0301    0.4244 C.2     1  UNL1       -0.0512
     23 H           8.7591    3.9508   -0.5123 H       1  UNL1        0.0625
     24 C           5.0291    2.9643    8.0268 C.ar    1  UNL1       -0.0538
     25 H           5.9860    2.9473    7.5254 H       1  UNL1        0.0624
     26 C           7.9961    5.8014    7.2664 C.ar    1  UNL1       -0.0538
     27 H           8.0734    4.7440    7.0545 H       1  UNL1        0.0624
     28 C           8.2655    6.2934    8.5277 C.ar    1  UNL1       -0.0612
     29 H           8.5831    5.6238    9.3140 H       1  UNL1        0.0618
     30 C           7.0873    7.2674    3.4838 C.ar    1  UNL1       -0.0186
     31 C           4.4508    6.6578    7.7472 C.ar    1  UNL1       -0.0538
     32 H           4.6270    5.9107    8.5083 H       1  UNL1        0.0624
     33 C           8.0936    8.2261    3.4097 C.ar    1  UNL1       -0.0538
     34 H           8.9069    8.2073    4.1230 H       1  UNL1        0.0624
     35 C           7.4174    8.0108    6.5191 C.ar    1  UNL1       -0.0538
     36 H           7.0608    8.6786    5.7478 H       1  UNL1        0.0624
     37 C           6.8475    3.8293    0.4818 C.ar    1  UNL1       -0.0001
     38 C           4.0322    8.5764    5.7850 C.ar    1  UNL1       -0.0612
     39 H           3.8762    9.3232    5.0190 H       1  UNL1        0.0618
     40 C           2.2413    4.0358    2.4430 C.2     1  UNL1       -0.0418
     41 H           1.1900    4.0807    2.6884 H       1  UNL1        0.0634
     42 C           4.8231    2.3059    9.2254 C.ar    1  UNL1       -0.0612
     43 H           5.6306    1.7590    9.6900 H       1  UNL1        0.0618
     44 C           8.1186    7.6475    8.7869 C.ar    1  UNL1       -0.0617
     45 H           8.3277    8.0352    9.7733 H       1  UNL1        0.0618
     46 C           2.6346    3.8388    1.1227 C.2     1  UNL1       -0.0512
     47 H           1.9002    3.7430    0.3379 H       1  UNL1        0.0625
     48 C           6.0564    7.2878    2.5542 C.ar    1  UNL1       -0.0538
     49 H           5.2882    6.5272    2.6062 H       1  UNL1        0.0624
     50 C           8.0489    9.2008    2.4308 C.ar    1  UNL1       -0.0612
     51 H           8.8282    9.9477    2.3788 H       1  UNL1        0.0618
     52 C           5.9557    3.6152   -0.6103 C.ar    1  UNL1       -0.0521
     53 H           6.3798    3.5048   -1.5981 H       1  UNL1        0.0624
     54 C           7.0109    9.2196    1.5116 C.ar    1  UNL1       -0.0617
     55 H           6.9829    9.9815    0.7463 H       1  UNL1        0.0618
     56 C           4.0007    3.7630    0.8412 C.ar    1  UNL1       -0.0001
     57 C           7.6898    8.5002    7.7843 C.ar    1  UNL1       -0.0612
     58 H           7.5592    9.5531    7.9894 H       1  UNL1        0.0618
     59 C           3.5767    2.3458    9.8291 C.ar    1  UNL1       -0.0617
     60 H           3.4112    1.8287   10.7631 H       1  UNL1        0.0618
     61 C           2.7427    3.7152    8.0434 C.ar    1  UNL1       -0.0538
     62 H           1.9386    4.2800    7.5912 H       1  UNL1        0.0624
     63 C           6.0156    8.2591    1.5704 C.ar    1  UNL1       -0.0612
     64 H           5.2113    8.2651    0.8487 H       1  UNL1        0.0618
     65 C           4.4408    8.0014    8.0783 C.ar    1  UNL1       -0.0612
     66 H           4.6054    8.3013    9.1031 H       1  UNL1        0.0618
     67 C           4.2271    8.9604    7.1029 C.ar    1  UNL1       -0.0617
     68 H           4.2193   10.0079    7.3666 H       1  UNL1        0.0618
     69 C           2.5394    3.0514    9.2393 C.ar    1  UNL1       -0.0612
     70 H           1.5706    3.0861    9.7169 H       1  UNL1        0.0618
     71 C           4.6075    3.5748   -0.4377 C.ar    1  UNL1       -0.0521
     72 H           3.9562    3.4216   -1.2867 H       1  UNL1        0.0624
@<TRIPOS>BOND
     1    53    52    1
     2    72    71    1
     3    52    71   ar
     4    52    37   ar
     5    23    22    1
     6    71    56   ar
     7    47    46    1
     8    22    37    2
     9    22    20    1
    10    37     9   ar
    11    55    54    1
    12    56    46    2
    13    56    19   ar
    14    64    63    1
    15    46    40    1
    16    54    63   ar
    17    54    50   ar
    18    21    20    1
    19    63    48   ar
    20    20     7    2
    21     9    19   ar
    22     9     4    1
    23    19     3    1
    24    51    50    1
    25    50    33   ar
    26    40    41    1
    27    40     8    2
    28    48    49    1
    29    48    30   ar
    30     7     4    1
    31     7    13    1
    32     3     8    1
    33    33    30   ar
    34    33    34    1
    35     8    10    1
    36    30     1    1
    37    14    13    1
    38    13     1    1
    39    13    15    1
    40    17    16    1
    41     1     6    1
    42    10    12    1
    43    10    11    1
    44    10     2    1
    45    39    38    1
    46    16    38   ar
    47    16    18   ar
    48    36    35    1
    49    38    67   ar
    50     2    18    1
    51     2     5    1
    52     6    35   ar
    53     6    26   ar
    54    18    31   ar
    55    35    57   ar
    56    27    26    1
    57    67    68    1
    58    67    65   ar
    59    26    28   ar
    60     5    24   ar
    61     5    61   ar
    62    25    24    1
    63    62    61    1
    64    31    65   ar
    65    31    32    1
    66    57    58    1
    67    57    44   ar
    68    24    42   ar
    69    61    69   ar
    70    65    66    1
    71    28    44   ar
    72    28    29    1
    73    44    45    1
    74    42    43    1
    75    42    59   ar
    76    69    70    1
    77    69    59   ar
    78    59    60    1
