@<TRIPOS>MOLECULE
1,2,7,8
 86 88 0 0 0
SMALL
GASTEIGER

@<TRIPOS>ATOM
      1 P           6.7417    1.8647    2.9785 P.3     1  UNL1        0.0000
      2 P           6.1829    6.2652    5.1318 P.3     1  UNL1        0.0000
      3 SI          9.2376    3.1457    4.1866 Si      1  UNL1        0.0000
      4 SI          8.9033    6.0777    3.9300 Si      1  UNL1        0.0000
      5 SI          5.9331    3.8515    6.9717 Si      1  UNL1        0.0000
      6 SI          4.8083    1.6995    5.2685 Si      1  UNL1        0.0000
      7 N           8.2070    4.5091    4.0233 N.3     1  UNL1        0.0000
      8 N           5.6529    3.1901    5.4110 N.3     1  UNL1        0.0000
      9 C           8.1538    1.5647    4.0885 C.3     1  UNL1        0.0000
     10 C           7.5862    7.2976    4.6087 C.3     1  UNL1        0.0000
     11 C           6.7553    5.5626    6.7085 C.3     1  UNL1        0.0000
     12 C           5.4353    0.8100    3.6820 C.3     1  UNL1        0.0000
     13 C          10.6421    3.1215    2.8743 C.3     1  UNL1        0.0000
     14 C          10.1621    3.0337    5.8682 C.3     1  UNL1        0.0000
     15 C           9.4130    6.5685    2.1442 C.3     1  UNL1        0.0000
     16 C          10.4598    6.3656    5.0057 C.3     1  UNL1        0.0000
     17 C           4.3372    3.9633    8.0373 C.3     1  UNL1        0.0000
     18 C           7.1574    2.8476    8.0615 C.3     1  UNL1        0.0000
     19 C           2.9036    1.9294    5.1755 C.3     1  UNL1        0.0000
     20 C           5.1043    0.4379    6.6766 C.3     1  UNL1        0.0000
     21 C           7.1670    0.9449    1.4031 C.3     1  UNL1        0.0000
     22 C           7.4965   -0.5378    1.5597 C.3     1  UNL1        0.0000
     23 C           7.7307   -1.1627    0.1841 C.3     1  UNL1        0.0000
     24 C           8.8571   -0.4469   -0.5559 C.3     1  UNL1        0.0000
     25 C           8.5446    1.0405   -0.6929 C.3     1  UNL1        0.0000
     26 C           8.3108    1.6525    0.6855 C.3     1  UNL1        0.0000
     27 C           4.9235    7.5574    5.6322 C.3     1  UNL1        0.0000
     28 C           5.4280    8.6496    6.5734 C.3     1  UNL1        0.0000
     29 C           4.3166    9.6716    6.8165 C.3     1  UNL1        0.0000
     30 C           3.0741    9.0024    7.3969 C.3     1  UNL1        0.0000
     31 C           2.5842    7.8922    6.4715 C.3     1  UNL1        0.0000
     32 C           3.7020    6.8790    6.2400 C.3     1  UNL1        0.0000
     33 H           7.7209    1.4007    5.0750 H       1  UNL1        0.0000
     34 H           8.7137    0.6754    3.8015 H       1  UNL1        0.0000
     35 H           7.2389    7.9911    3.8443 H       1  UNL1        0.0000
     36 H           7.9642    7.8688    5.4559 H       1  UNL1        0.0000
     37 H           7.8248    5.4005    6.5829 H       1  UNL1        0.0000
     38 H           6.5997    6.2551    7.5338 H       1  UNL1        0.0000
     39 H           4.6433    0.7043    2.9397 H       1  UNL1        0.0000
     40 H           5.8317   -0.1800    3.9089 H       1  UNL1        0.0000
     41 H          11.0825    2.1369    2.7515 H       1  UNL1        0.0000
     42 H          10.3110    3.4735    1.9041 H       1  UNL1        0.0000
     43 H          11.4333    3.7867    3.2016 H       1  UNL1        0.0000
     44 H           9.6251    3.5466    6.6573 H       1  UNL1        0.0000
     45 H          10.3130    2.0055    6.1829 H       1  UNL1        0.0000
     46 H          11.1398    3.4936    5.7891 H       1  UNL1        0.0000
     47 H          10.4184    6.2170    1.9421 H       1  UNL1        0.0000
     48 H           8.7566    6.1260    1.4026 H       1  UNL1        0.0000
     49 H           9.4083    7.6440    1.9980 H       1  UNL1        0.0000
     50 H          10.2944    6.1367    6.0521 H       1  UNL1        0.0000
     51 H          11.2748    5.7433    4.6586 H       1  UNL1        0.0000
     52 H          10.7864    7.3981    4.9388 H       1  UNL1        0.0000
     53 H           4.4221    4.6871    8.8416 H       1  UNL1        0.0000
     54 H           3.4608    4.2057    7.4481 H       1  UNL1        0.0000
     55 H           4.1575    2.9976    8.4961 H       1  UNL1        0.0000
     56 H           6.6199    2.1224    8.6607 H       1  UNL1        0.0000
     57 H           7.8790    2.3049    7.4625 H       1  UNL1        0.0000
     58 H           7.7076    3.4871    8.7449 H       1  UNL1        0.0000
     59 H           2.4967    1.9927    6.1783 H       1  UNL1        0.0000
     60 H           2.6312    2.8414    4.6550 H       1  UNL1        0.0000
     61 H           2.4147    1.0976    4.6777 H       1  UNL1        0.0000
     62 H           4.7227    0.8261    7.6121 H       1  UNL1        0.0000
     63 H           4.5850   -0.4930    6.4734 H       1  UNL1        0.0000
     64 H           6.1539    0.2080    6.8195 H       1  UNL1        0.0000
     65 H           6.2598    1.0169    0.7863 H       1  UNL1        0.0000
     66 H           8.3985   -0.6626    2.1622 H       1  UNL1        0.0000
     67 H           6.6798   -1.0628    2.0582 H       1  UNL1        0.0000
     68 H           7.9753   -2.2214    0.2984 H       1  UNL1        0.0000
     69 H           6.8121   -1.0957   -0.4045 H       1  UNL1        0.0000
     70 H           9.7897   -0.5689    0.0000 H       1  UNL1        0.0000
     71 H           8.9954   -0.8938   -1.5428 H       1  UNL1        0.0000
     72 H           9.3711    1.5502   -1.1931 H       1  UNL1        0.0000
     73 H           7.6510    1.1688   -1.3094 H       1  UNL1        0.0000
     74 H           8.0905    2.7202    0.5988 H       1  UNL1        0.0000
     75 H           9.2171    1.5458    1.2820 H       1  UNL1        0.0000
     76 H           4.6299    8.0472    4.6945 H       1  UNL1        0.0000
     77 H           5.7272    8.2171    7.5300 H       1  UNL1        0.0000
     78 H           6.2926    9.1579    6.1444 H       1  UNL1        0.0000
     79 H           4.6735   10.4469    7.4985 H       1  UNL1        0.0000
     80 H           4.0577   10.1540    5.8708 H       1  UNL1        0.0000
     81 H           3.3159    8.5763    8.3734 H       1  UNL1        0.0000
     82 H           2.2871    9.7455    7.5423 H       1  UNL1        0.0000
     83 H           1.7156    7.3977    6.9116 H       1  UNL1        0.0000
     84 H           2.2752    8.3243    5.5165 H       1  UNL1        0.0000
     85 H           3.3663    6.0720    5.5847 H       1  UNL1        0.0000
     86 H           3.9868    6.4394    7.1955 H       1  UNL1        0.0000
@<TRIPOS>BOND
     1    71    24    1
     2    73    25    1
     3    72    25    1
     4    25    24    1
     5    25    26    1
     6    24    70    1
     7    24    23    1
     8    69    23    1
     9    23    68    1
    10    23    22    1
    11    74    26    1
    12    26    75    1
    13    26    21    1
    14    65    21    1
    15    48    15    1
    16    21    22    1
    17    21     1    1
    18    22    67    1
    19    22    66    1
    20    42    13    1
    21    47    15    1
    22    49    15    1
    23    15     4    1
    24    41    13    1
    25    13    43    1
    26    13     3    1
    27    39    12    1
    28     1    12    1
    29     1     9    1
    30    12    40    1
    31    12     6    1
    32    34     9    1
    33    35    10    1
    34     4     7    1
    35     4    10    1
    36     4    16    1
    37     7     3    1
    38     9     3    1
    39     9    33    1
    40     3    14    1
    41    10     2    1
    42    10    36    1
    43    60    19    1
    44    51    16    1
    45    61    19    1
    46    76    27    1
    47    52    16    1
    48    16    50    1
    49     2    27    1
    50     2    11    1
    51    19     6    1
    52    19    59    1
    53     6     8    1
    54     6    20    1
    55     8     5    1
    56    84    31    1
    57    85    32    1
    58    27    32    1
    59    27    28    1
    60    46    14    1
    61    14    45    1
    62    14    44    1
    63    80    29    1
    64    78    28    1
    65    32    31    1
    66    32    86    1
    67    31    83    1
    68    31    30    1
    69    63    20    1
    70    28    29    1
    71    28    77    1
    72    37    11    1
    73    20    64    1
    74    20    62    1
    75    11     5    1
    76    11    38    1
    77    29    30    1
    78    29    79    1
    79     5    17    1
    80     5    18    1
    81    30    82    1
    82    30    81    1
    83    54    17    1
    84    57    18    1
    85    17    55    1
    86    17    53    1
    87    18    56    1
    88    18    58    1
