@<TRIPOS>MOLECULE
1,2,7,8
 74 76 0 0 0
SMALL
GASTEIGER

@<TRIPOS>ATOM
      1 P           6.5730    4.8163    8.5019 P.3     1  UNL1        0.0000
      2 P           7.2064    5.7285   13.1149 P.3     1  UNL1        0.0000
      3 SI          9.4030    4.3584    9.1730 Si      1  UNL1        0.0000
      4 SI          8.9457    3.5227   12.0166 Si      1  UNL1        0.0000
      5 SI          4.4158    4.9399   12.7712 Si      1  UNL1        0.0000
      6 SI          4.8987    3.1659   10.4048 Si      1  UNL1        0.0000
      7 N           8.5029    4.4492   10.6368 N.3     1  UNL1        0.0000
      8 N           5.3255    4.5217   11.3717 N.3     1  UNL1        0.0000
      9 C           8.1863    4.6328    7.6962 C.3     1  UNL1        0.0000
     10 C           7.7388    4.0199   13.4208 C.3     1  UNL1        0.0000
     11 C           5.6228    5.8282   13.9859 C.3     1  UNL1        0.0000
     12 C           6.1164    3.1073    8.9205 C.3     1  UNL1        0.0000
     13 C          10.2494    2.6779    8.8348 C.3     1  UNL1        0.0000
     14 C          10.8126    5.6639    9.0953 C.3     1  UNL1        0.0000
     15 C           8.7620    1.6258   11.7834 C.3     1  UNL1        0.0000
     16 C          10.7620    3.7697   12.6082 C.3     1  UNL1        0.0000
     17 C           3.6702    3.4722   13.7441 C.3     1  UNL1        0.0000
     18 C           2.9287    6.0916   12.3733 C.3     1  UNL1        0.0000
     19 C           5.0608    1.4743   11.2982 C.3     1  UNL1        0.0000
     20 C           3.0907    3.1984    9.7396 C.3     1  UNL1        0.0000
     21 C           5.3681    5.1976    7.1910 C.ar    1  UNL1        0.0000
     22 C           4.0951    5.5715    7.6135 C.ar    1  UNL1        0.0000
     23 C           3.1153    5.8834    6.6908 C.ar    1  UNL1        0.0000
     24 C           3.4033    5.8359    5.3351 C.ar    1  UNL1        0.0000
     25 C           4.6706    5.4753    4.9094 C.ar    1  UNL1        0.0000
     26 C           5.6527    5.1568    5.8323 C.ar    1  UNL1        0.0000
     27 C           8.4181    6.6542   14.1081 C.ar    1  UNL1        0.0000
     28 C           9.6921    6.7876   13.5624 C.ar    1  UNL1        0.0000
     29 C          10.6778    7.4703   14.2488 C.ar    1  UNL1        0.0000
     30 C          10.3966    8.0346   15.4841 C.ar    1  UNL1        0.0000
     31 C           9.1292    7.9114   16.0278 C.ar    1  UNL1        0.0000
     32 C           8.1405    7.2236   15.3443 C.ar    1  UNL1        0.0000
     33 H           8.1775    3.7944    6.9977 H       1  UNL1        0.0000
     34 H           8.4182    5.5485    7.1515 H       1  UNL1        0.0000
     35 H           8.1585    3.9249   14.4232 H       1  UNL1        0.0000
     36 H           6.8396    3.4105   13.3441 H       1  UNL1        0.0000
     37 H           5.6897    5.3382   14.9579 H       1  UNL1        0.0000
     38 H           5.3546    6.8740   14.1266 H       1  UNL1        0.0000
     39 H           5.7207    2.5874    8.0459 H       1  UNL1        0.0000
     40 H           7.0375    2.6226    9.2431 H       1  UNL1        0.0000
     41 H           9.5478    1.8530    8.7911 H       1  UNL1        0.0000
     42 H          10.7926    2.7031    7.8961 H       1  UNL1        0.0000
     43 H          10.9625    2.4641    9.6209 H       1  UNL1        0.0000
     44 H          11.7307    5.2286    9.4748 H       1  UNL1        0.0000
     45 H          11.0105    5.9985    8.0815 H       1  UNL1        0.0000
     46 H          10.5912    6.5370    9.7003 H       1  UNL1        0.0000
     47 H           7.9337    1.3687   11.1341 H       1  UNL1        0.0000
     48 H           9.6626    1.2178   11.3409 H       1  UNL1        0.0000
     49 H           8.6107    1.1216   12.7328 H       1  UNL1        0.0000
     50 H          11.2578    2.8086   12.6886 H       1  UNL1        0.0000
     51 H          11.3259    4.3646   11.8982 H       1  UNL1        0.0000
     52 H          10.8308    4.2538   13.5767 H       1  UNL1        0.0000
     53 H           3.1544    3.8228   14.6316 H       1  UNL1        0.0000
     54 H           2.9456    2.9564   13.1268 H       1  UNL1        0.0000
     55 H           4.4143    2.7486   14.0556 H       1  UNL1        0.0000
     56 H           3.1137    6.7065   11.4988 H       1  UNL1        0.0000
     57 H           2.0485    5.4910   12.1717 H       1  UNL1        0.0000
     58 H           2.6866    6.7510   13.2008 H       1  UNL1        0.0000
     59 H           4.1418    1.2439   11.8232 H       1  UNL1        0.0000
     60 H           5.2437    0.6666   10.5961 H       1  UNL1        0.0000
     61 H           5.8615    1.4700   12.0280 H       1  UNL1        0.0000
     62 H           2.5535    4.0677   10.1023 H       1  UNL1        0.0000
     63 H           3.0389    3.2025    8.6555 H       1  UNL1        0.0000
     64 H           2.5541    2.3225   10.0871 H       1  UNL1        0.0000
     65 H           3.8963    5.6106    8.6774 H       1  UNL1        0.0000
     66 H           2.1275    6.1689    7.0232 H       1  UNL1        0.0000
     67 H           2.6412    6.0842    4.6109 H       1  UNL1        0.0000
     68 H           4.8958    5.4430    3.8528 H       1  UNL1        0.0000
     69 H           6.6403    4.8789    5.4930 H       1  UNL1        0.0000
     70 H           9.8825    6.3475   12.5922 H       1  UNL1        0.0000
     71 H          11.6663    7.5691   13.8234 H       1  UNL1        0.0000
     72 H          11.1639    8.5732   16.0208 H       1  UNL1        0.0000
     73 H           8.9093    8.3542   16.9888 H       1  UNL1        0.0000
     74 H           7.1529    7.1338   15.7730 H       1  UNL1        0.0000
@<TRIPOS>BOND
     1    68    25    1
     2    67    24    1
     3    25    24   ar
     4    25    26   ar
     5    24    23   ar
     6    69    26    1
     7    26    21   ar
     8    23    66    1
     9    23    22   ar
    10    33     9    1
    11    34     9    1
    12    21    22   ar
    13    21     1    1
    14    22    65    1
    15     9     1    1
    16     9     3    1
    17    42    13    1
    18    39    12    1
    19    45    14    1
    20     1    12    1
    21    63    20    1
    22    41    13    1
    23    13     3    1
    24    13    43    1
    25    12    40    1
    26    12     6    1
    27    14     3    1
    28    14    44    1
    29    14    46    1
    30     3     7    1
    31    20    64    1
    32    20    62    1
    33    20     6    1
    34     6    19    1
    35     6     8    1
    36    60    19    1
    37     7     4    1
    38    47    15    1
    39    19    59    1
    40    19    61    1
    41    48    15    1
    42     8     5    1
    43    56    18    1
    44    15     4    1
    45    15    49    1
    46    51    16    1
    47     4    16    1
    48     4    10    1
    49    57    18    1
    50    18     5    1
    51    18    58    1
    52    70    28    1
    53    16    50    1
    54    16    52    1
    55     5    17    1
    56     5    11    1
    57     2    10    1
    58     2    11    1
    59     2    27    1
    60    54    17    1
    61    36    10    1
    62    10    35    1
    63    28    27   ar
    64    28    29   ar
    65    17    55    1
    66    17    53    1
    67    71    29    1
    68    11    38    1
    69    11    37    1
    70    27    32   ar
    71    29    30   ar
    72    32    74    1
    73    32    31   ar
    74    30    72    1
    75    30    31   ar
    76    31    73    1
