@<TRIPOS>MOLECULE
1,2,7,8
 86 88 0 0 0
SMALL
GASTEIGER

@<TRIPOS>ATOM
      1 P           2.4166    0.9049    3.2028 P.3     1  UNL1        0.0000
      2 P           1.1155    5.6297    3.6692 P.3     1  UNL1        0.0000
      3 SI         -0.5480    1.1020    3.2996 Si      1  UNL1        0.0000
      4 SI         -0.7979    3.8106    2.1291 Si      1  UNL1        0.0000
      5 SI          3.7302    5.3655    2.2132 Si      1  UNL1        0.0000
      6 SI          3.2759    2.7320    0.9283 Si      1  UNL1        0.0000
      7 N           0.1255    2.6545    3.0002 N.3     1  UNL1        0.0000
      8 N           2.9931    3.8122    2.2344 N.3     1  UNL1        0.0000
      9 C           0.9332   -0.1027    3.5004 C.3     1  UNL1        0.0000
     10 C           0.1763    5.4644    2.1170 C.3     1  UNL1        0.0000
     11 C           2.5817    6.5825    3.1614 C.3     1  UNL1        0.0000
     12 C           2.4449    1.0682    1.3923 C.3     1  UNL1        0.0000
     13 C          -1.6132    0.3679    1.8890 C.3     1  UNL1        0.0000
     14 C          -1.6614    1.0500    4.8642 C.3     1  UNL1        0.0000
     15 C          -1.0976    3.3723    0.2815 C.3     1  UNL1        0.0000
     16 C          -2.5657    4.0339    2.8504 C.3     1  UNL1        0.0000
     17 C           3.9510    6.1600    0.4864 C.3     1  UNL1        0.0000
     18 C           5.4773    5.3671    3.0113 C.3     1  UNL1        0.0000
     19 C           2.4816    3.2692   -0.7372 C.3     1  UNL1        0.0000
     20 C           5.1408    2.5164    0.5141 C.3     1  UNL1        0.0000
     21 C           3.7970   -0.2973    3.5839 C.3     1  UNL1        0.0000
     22 C           5.1361    0.3236    3.2061 C.3     1  UNL1        0.0000
     23 C           6.2893   -0.5548    3.6837 C.3     1  UNL1        0.0000
     24 C           6.1710   -1.9453    3.0657 C.3     1  UNL1        0.0000
     25 C           4.8217   -2.5696    3.4097 C.3     1  UNL1        0.0000
     26 C           3.6688   -1.6788    2.9450 C.3     1  UNL1        0.0000
     27 C           0.1678    6.9010    4.6676 C.3     1  UNL1        0.0000
     28 C          -1.1607    6.3111    5.1271 C.3     1  UNL1        0.0000
     29 C          -1.8639    7.2537    6.0998 C.3     1  UNL1        0.0000
     30 C          -2.0979    8.6075    5.4357 C.3     1  UNL1        0.0000
     31 C          -0.7772    9.1981    4.9506 C.3     1  UNL1        0.0000
     32 C          -0.0743    8.2448    3.9838 C.3     1  UNL1        0.0000
     33 H           0.8898   -0.9228    2.7845 H       1  UNL1        0.0000
     34 H           0.9899   -0.5157    4.5063 H       1  UNL1        0.0000
     35 H          -0.4537    6.3332    1.9302 H       1  UNL1        0.0000
     36 H           0.9246    5.4002    1.3271 H       1  UNL1        0.0000
     37 H           2.2851    7.4228    2.5330 H       1  UNL1        0.0000
     38 H           3.0632    6.9737    4.0584 H       1  UNL1        0.0000
     39 H           2.9047    0.2009    0.9218 H       1  UNL1        0.0000
     40 H           1.4009    1.1208    1.0880 H       1  UNL1        0.0000
     41 H          -2.5057    0.9636    1.7466 H       1  UNL1        0.0000
     42 H          -1.0883    0.3317    0.9414 H       1  UNL1        0.0000
     43 H          -1.9296   -0.6408    2.1326 H       1  UNL1        0.0000
     44 H          -1.3173    1.7412    5.6261 H       1  UNL1        0.0000
     45 H          -2.6745    1.3320    4.6011 H       1  UNL1        0.0000
     46 H          -1.7030    0.0587    5.3043 H       1  UNL1        0.0000
     47 H          -2.0473    2.8636    0.1675 H       1  UNL1        0.0000
     48 H          -1.1266    4.2560   -0.3486 H       1  UNL1        0.0000
     49 H          -0.3290    2.7138   -0.1050 H       1  UNL1        0.0000
     50 H          -2.5802    4.0062    3.9339 H       1  UNL1        0.0000
     51 H          -3.0373    4.9553    2.5234 H       1  UNL1        0.0000
     52 H          -3.1866    3.2159    2.5023 H       1  UNL1        0.0000
     53 H           4.6389    5.5745   -0.1097 H       1  UNL1        0.0000
     54 H           3.0193    6.2330   -0.0628 H       1  UNL1        0.0000
     55 H           4.3642    7.1595    0.5740 H       1  UNL1        0.0000
     56 H           5.5435    4.6696    3.8397 H       1  UNL1        0.0000
     57 H           6.2142    5.0690    2.2742 H       1  UNL1        0.0000
     58 H           5.7598    6.3504    3.3746 H       1  UNL1        0.0000
     59 H           3.1749    3.8773   -1.3058 H       1  UNL1        0.0000
     60 H           2.2198    2.4150   -1.3541 H       1  UNL1        0.0000
     61 H           1.5831    3.8550   -0.5841 H       1  UNL1        0.0000
     62 H           5.7689    2.5459    1.3964 H       1  UNL1        0.0000
     63 H           5.3449    1.5952   -0.0221 H       1  UNL1        0.0000
     64 H           5.4517    3.3330   -0.1276 H       1  UNL1        0.0000
     65 H           3.7625   -0.4354    4.6722 H       1  UNL1        0.0000
     66 H           5.1854    0.4142    2.1213 H       1  UNL1        0.0000
     67 H           5.2072    1.3275    3.6314 H       1  UNL1        0.0000
     68 H           7.2442   -0.1042    3.4047 H       1  UNL1        0.0000
     69 H           6.2637   -0.6372    4.7730 H       1  UNL1        0.0000
     70 H           6.2663   -1.8659    1.9803 H       1  UNL1        0.0000
     71 H           6.9782   -2.5869    3.4258 H       1  UNL1        0.0000
     72 H           4.7378   -3.5532    2.9417 H       1  UNL1        0.0000
     73 H           4.7550   -2.7093    4.4914 H       1  UNL1        0.0000
     74 H           2.7228   -2.1448    3.2245 H       1  UNL1        0.0000
     75 H           3.6988   -1.5963    1.8568 H       1  UNL1        0.0000
     76 H           0.7987    7.0886    5.5483 H       1  UNL1        0.0000
     77 H          -1.7965    6.1591    4.2545 H       1  UNL1        0.0000
     78 H          -0.9922    5.3364    5.5932 H       1  UNL1        0.0000
     79 H          -2.8171    6.8231    6.4144 H       1  UNL1        0.0000
     80 H          -1.2476    7.3888    6.9925 H       1  UNL1        0.0000
     81 H          -2.7712    8.4796    4.5847 H       1  UNL1        0.0000
     82 H          -2.5750    9.2933    6.1392 H       1  UNL1        0.0000
     83 H          -0.9573   10.1555    4.4561 H       1  UNL1        0.0000
     84 H          -0.1280    9.3849    5.8100 H       1  UNL1        0.0000
     85 H           0.8699    8.6899    3.6653 H       1  UNL1        0.0000
     86 H          -0.7020    8.1112    3.1004 H       1  UNL1        0.0000
@<TRIPOS>BOND
     1    60    19    1
     2    59    19    1
     3    19    61    1
     4    19     6    1
     5    48    15    1
     6    64    20    1
     7    53    17    1
     8    49    15    1
     9    54    17    1
    10    63    20    1
    11    47    15    1
    12    15     4    1
    13    17    55    1
    14    17     5    1
    15    20     6    1
    16    20    62    1
    17    39    12    1
    18     6    12    1
    19     6     8    1
    20    42    13    1
    21    40    12    1
    22    36    10    1
    23    12     1    1
    24    41    13    1
    25    75    26    1
    26    13    43    1
    27    13     3    1
    28    35    10    1
    29    70    24    1
    30    10     4    1
    31    10     2    1
    32    66    22    1
    33     4    16    1
    34     4     7    1
    35     5     8    1
    36     5    18    1
    37     5    11    1
    38    57    18    1
    39    52    16    1
    40    51    16    1
    41    37    11    1
    42    33     9    1
    43    16    50    1
    44    72    25    1
    45    26    74    1
    46    26    25    1
    47    26    21    1
    48     7     3    1
    49    18    58    1
    50    18    56    1
    51    24    25    1
    52    24    71    1
    53    24    23    1
    54    86    32    1
    55    11     2    1
    56    11    38    1
    57     1     9    1
    58     1    21    1
    59    22    21    1
    60    22    67    1
    61    22    23    1
    62     3     9    1
    63     3    14    1
    64    68    23    1
    65    25    73    1
    66     9    34    1
    67    21    65    1
    68    85    32    1
    69     2    27    1
    70    23    69    1
    71    32    27    1
    72    32    31    1
    73    77    28    1
    74    83    31    1
    75    81    30    1
    76    45    14    1
    77    27    28    1
    78    27    76    1
    79    14    46    1
    80    14    44    1
    81    31    30    1
    82    31    84    1
    83    28    78    1
    84    28    29    1
    85    30    29    1
    86    30    82    1
    87    29    79    1
    88    29    80    1
