@<TRIPOS>MOLECULE
1,4,38,41
 74 76 0 0 0
SMALL
GASTEIGER

@<TRIPOS>ATOM
      1 P           8.2305    1.3110    6.7019 P.3     1  UNL1        0.0000
      2 SI          5.6836   -0.7632    3.7399 Si      1  UNL1        0.0000
      3 SI          5.5151    0.2578    6.4992 Si      1  UNL1        0.0000
      4 N           6.2494    0.3135    4.9491 N.3     1  UNL1        0.0000
      5 C           8.9146   -0.3721    6.7776 C.3     1  UNL1        0.0000
      6 H           8.0530   -1.0356    6.8072 H       1  UNL1        0.0000
      7 H           9.4853   -0.4955    7.6987 H       1  UNL1        0.0000
      8 C           6.7376    1.1087    7.7115 C.3     1  UNL1        0.0000
      9 H           6.3550    2.0643    8.0613 H       1  UNL1        0.0000
     10 H           6.9880    0.4958    8.5782 H       1  UNL1        0.0000
     11 C           3.7870   -0.6250    3.4450 C.3     1  UNL1        0.0000
     12 H           3.2855   -1.3525    4.0735 H       1  UNL1        0.0000
     13 H           3.5101   -0.8399    2.4176 H       1  UNL1        0.0000
     14 H           3.3830    0.3463    3.7090 H       1  UNL1        0.0000
     15 C           5.9559   -2.6306    4.0827 C.3     1  UNL1        0.0000
     16 H           6.7488   -2.7972    4.8007 H       1  UNL1        0.0000
     17 H           6.2035   -3.1785    3.1786 H       1  UNL1        0.0000
     18 H           5.0537   -3.0723    4.4893 H       1  UNL1        0.0000
     19 C           3.8096    1.1433    6.6238 C.3     1  UNL1        0.0000
     20 H           3.7194    2.0017    5.9654 H       1  UNL1        0.0000
     21 H           3.6017    1.4788    7.6356 H       1  UNL1        0.0000
     22 H           3.0284    0.4434    6.3502 H       1  UNL1        0.0000
     23 C           5.1634   -1.4854    7.1981 C.3     1  UNL1        0.0000
     24 H           4.3998   -1.9654    6.5993 H       1  UNL1        0.0000
     25 H           4.7869   -1.4180    8.2136 H       1  UNL1        0.0000
     26 H           6.0293   -2.1373    7.2079 H       1  UNL1        0.0000
     27 C           9.3979    2.1709    7.8200 C.ar    1  UNL1        0.0000
     28 C          10.7560    2.1050    7.5202 C.ar    1  UNL1        0.0000
     29 H          11.0675    1.5487    6.6502 H       1  UNL1        0.0000
     30 C          11.6920    2.7243    8.3260 C.ar    1  UNL1        0.0000
     31 H          12.7421    2.6629    8.0783 H       1  UNL1        0.0000
     32 C          11.2846    3.4217    9.4521 C.ar    1  UNL1        0.0000
     33 H          12.0127    3.9098   10.0832 H       1  UNL1        0.0000
     34 C           9.9387    3.4815    9.7686 C.ar    1  UNL1        0.0000
     35 H           9.6146    4.0130   10.6521 H       1  UNL1        0.0000
     36 C           9.0018    2.8607    8.9601 C.ar    1  UNL1        0.0000
     37 H           7.9584    2.9107    9.2353 H       1  UNL1        0.0000
     38 P           7.3521    1.3110    2.2288 P.3     1  UNL1        0.0000
     39 SI          9.8987   -0.7631    5.1909 Si      1  UNL1        0.0000
     40 SI         10.0672    0.2579    2.4316 Si      1  UNL1        0.0000
     41 N           9.3329    0.3138    3.9818 N.3     1  UNL1        0.0000
     42 C           6.6678   -0.3720    2.1533 C.3     1  UNL1        0.0000
     43 H           7.5294   -1.0356    2.1237 H       1  UNL1        0.0000
     44 H           6.0971   -0.4954    1.2322 H       1  UNL1        0.0000
     45 C           8.8449    1.1087    1.2192 C.3     1  UNL1        0.0000
     46 H           9.2275    2.0643    0.8694 H       1  UNL1        0.0000
     47 H           8.5944    0.4958    0.3524 H       1  UNL1        0.0000
     48 C          11.7953   -0.6250    5.4857 C.3     1  UNL1        0.0000
     49 H          12.2969   -1.3526    4.8573 H       1  UNL1        0.0000
     50 H          12.0723   -0.8399    6.5132 H       1  UNL1        0.0000
     51 H          12.1994    0.3463    5.2218 H       1  UNL1        0.0000
     52 C           9.6265   -2.6305    4.8481 C.3     1  UNL1        0.0000
     53 H           8.8323   -2.7969    4.1307 H       1  UNL1        0.0000
     54 H           9.3801   -3.1789    5.7530 H       1  UNL1        0.0000
     55 H          10.5289   -3.0718    4.4398 H       1  UNL1        0.0000
     56 C          11.7728    1.1433    2.3070 C.3     1  UNL1        0.0000
     57 H          11.8630    2.0017    2.9653 H       1  UNL1        0.0000
     58 H          11.9807    1.4787    1.2951 H       1  UNL1        0.0000
     59 H          12.5539    0.4435    2.5807 H       1  UNL1        0.0000
     60 C          10.4190   -1.4853    1.7328 C.3     1  UNL1        0.0000
     61 H          11.1825   -1.9654    2.3315 H       1  UNL1        0.0000
     62 H          10.7954   -1.4180    0.7173 H       1  UNL1        0.0000
     63 H           9.5531   -2.1372    1.7230 H       1  UNL1        0.0000
     64 C           6.1845    2.1709    1.1109 C.ar    1  UNL1        0.0000
     65 C           4.8265    2.1050    1.4106 C.ar    1  UNL1        0.0000
     66 H           4.5149    1.5487    2.2806 H       1  UNL1        0.0000
     67 C           3.8904    2.7243    0.6048 C.ar    1  UNL1        0.0000
     68 H           2.8404    2.6629    0.8525 H       1  UNL1        0.0000
     69 C           4.2978    3.4217   -0.5213 C.ar    1  UNL1        0.0000
     70 H           3.5697    3.9097   -1.1524 H       1  UNL1        0.0000
     71 C           5.6437    3.4815   -0.8378 C.ar    1  UNL1        0.0000
     72 H           5.9679    4.0130   -1.7213 H       1  UNL1        0.0000
     73 C           6.5807    2.8607   -0.0293 C.ar    1  UNL1        0.0000
     74 H           7.6240    2.9107   -0.3044 H       1  UNL1        0.0000
@<TRIPOS>BOND
     1    72    71    1
     2    70    69    1
     3    71    69   ar
     4    71    73   ar
     5    69    67   ar
     6    74    73    1
     7    73    64   ar
     8    47    45    1
     9    67    68    1
    10    67    65   ar
    11    62    60    1
    12    46    45    1
    13    64    65   ar
    14    64    38    1
    15    45    38    1
    16    45    40    1
    17    44    42    1
    18    58    56    1
    19    65    66    1
    20    63    60    1
    21    60    61    1
    22    60    40    1
    23    43    42    1
    24    42    38    1
    25    42     2    1
    26    56    40    1
    27    56    59    1
    28    56    57    1
    29    13    11    1
    30    40    41    1
    31    17    15    1
    32    11    14    1
    33    11     2    1
    34    11    12    1
    35     2    15    1
    36     2     4    1
    37    41    39    1
    38    15    18    1
    39    15    16    1
    40    53    52    1
    41    55    52    1
    42    52    39    1
    43    52    54    1
    44    49    48    1
    45     4     3    1
    46    39    48    1
    47    39     5    1
    48    51    48    1
    49    48    50    1
    50    20    19    1
    51    22    19    1
    52     3    19    1
    53     3    23    1
    54     3     8    1
    55    24    23    1
    56    19    21    1
    57    29    28    1
    58     1     5    1
    59     1     8    1
    60     1    27    1
    61     5     6    1
    62     5     7    1
    63    23    26    1
    64    23    25    1
    65    28    27   ar
    66    28    30   ar
    67     8     9    1
    68     8    10    1
    69    27    36   ar
    70    31    30    1
    71    30    32   ar
    72    36    37    1
    73    36    34   ar
    74    32    34   ar
    75    32    33    1
    76    34    35    1
