@<TRIPOS>MOLECULE
1,4,44,47
 86 88 0 0 0
SMALL
GASTEIGER

@<TRIPOS>ATOM
      1 P           1.6759    3.1683    4.4614 P.3     1  UNL1        0.0000
      2 SI         -0.8929    4.2177    5.4944 Si      1  UNL1        0.0000
      3 SI         -2.3996    5.2138    2.9989 Si      1  UNL1        0.0000
      4 N          -1.2064    4.2612    3.8006 N.3     1  UNL1        0.0000
      5 C           1.0178    4.3618    5.6684 C.3     1  UNL1        0.0000
      6 C           3.1256    3.9918    3.7273 C.3     1  UNL1        0.0000
      7 C          -1.3925    2.4674    6.1114 C.3     1  UNL1        0.0000
      8 C          -1.6626    5.5585    6.6045 C.3     1  UNL1        0.0000
      9 C          -1.6183    6.7664    2.1959 C.3     1  UNL1        0.0000
     10 C          -3.8932    5.7594    4.0569 C.3     1  UNL1        0.0000
     11 C           2.3587    1.8311    5.5689 C.3     1  UNL1        0.0000
     12 C           2.5630    0.5448    4.7716 C.3     1  UNL1        0.0000
     13 C           3.0366   -0.5835    5.6839 C.3     1  UNL1        0.0000
     14 C           4.3163   -0.1862    6.4145 C.3     1  UNL1        0.0000
     15 C           4.0998    1.0981    7.2097 C.3     1  UNL1        0.0000
     16 C           3.6501    2.2241    6.2813 C.3     1  UNL1        0.0000
     17 H           1.3760    4.1252    6.6703 H       1  UNL1        0.0000
     18 H           1.3617    5.3584    5.4012 H       1  UNL1        0.0000
     19 H           3.7041    4.5162    4.4890 H       1  UNL1        0.0000
     20 H           3.7494    3.2155    3.2778 H       1  UNL1        0.0000
     21 H          -2.4721    2.3532    6.1427 H       1  UNL1        0.0000
     22 H          -0.9995    1.7161    5.4203 H       1  UNL1        0.0000
     23 H          -1.0125    2.2477    7.1047 H       1  UNL1        0.0000
     24 H          -1.2135    5.5530    7.5912 H       1  UNL1        0.0000
     25 H          -1.5256    6.5459    6.1804 H       1  UNL1        0.0000
     26 H          -2.7243    5.3924    6.7238 H       1  UNL1        0.0000
     27 H          -1.4172    7.5265    2.9442 H       1  UNL1        0.0000
     28 H          -0.6763    6.5041    1.7216 H       1  UNL1        0.0000
     29 H          -2.2686    7.2122    1.4490 H       1  UNL1        0.0000
     30 H          -3.6174    6.5768    4.7093 H       1  UNL1        0.0000
     31 H          -4.7092    6.1022    3.4302 H       1  UNL1        0.0000
     32 H          -4.2657    4.9519    4.6766 H       1  UNL1        0.0000
     33 H           1.5748    1.6550    6.3199 H       1  UNL1        0.0000
     34 H           1.6237    0.2600    4.2847 H       1  UNL1        0.0000
     35 H           3.3041    0.7174    3.9847 H       1  UNL1        0.0000
     36 H           2.2567   -0.8041    6.4172 H       1  UNL1        0.0000
     37 H           3.2078   -1.4876    5.0964 H       1  UNL1        0.0000
     38 H           4.6283   -0.9908    7.0837 H       1  UNL1        0.0000
     39 H           5.1150   -0.0289    5.6859 H       1  UNL1        0.0000
     40 H           3.3379    0.9280    7.9745 H       1  UNL1        0.0000
     41 H           5.0246    1.3835    7.7165 H       1  UNL1        0.0000
     42 H           4.4343    2.4054    5.5436 H       1  UNL1        0.0000
     43 H           3.5054    3.1444    6.8533 H       1  UNL1        0.0000
     44 P          -1.7332    3.2218    0.9026 P.3     1  UNL1        0.0000
     45 C          -1.1125    4.3482   -0.3980 C.3     1  UNL1        0.0000
     46 SI          0.7974    4.4977   -0.1707 Si      1  UNL1        0.0000
     47 N           1.1701    4.4284    1.5065 N.3     1  UNL1        0.0000
     48 SI          2.4855    5.1630    2.3316 Si      1  UNL1        0.0000
     49 C           1.9562    6.8271    3.1296 C.3     1  UNL1        0.0000
     50 H           1.8719    7.5946    2.3674 H       1  UNL1        0.0000
     51 H           0.9895    6.7396    3.6174 H       1  UNL1        0.0000
     52 H           2.6800    7.1754    3.8605 H       1  UNL1        0.0000
     53 C           4.0142    5.4952    1.2343 C.3     1  UNL1        0.0000
     54 H           3.8296    6.3464    0.5928 H       1  UNL1        0.0000
     55 H           4.8902    5.7196    1.8327 H       1  UNL1        0.0000
     56 H           4.2490    4.6486    0.5997 H       1  UNL1        0.0000
     57 C           1.5609    3.0077   -1.1105 C.3     1  UNL1        0.0000
     58 H           2.6453    3.0562   -1.0996 H       1  UNL1        0.0000
     59 H           1.2697    2.0722   -0.6363 H       1  UNL1        0.0000
     60 H           1.2448    2.9702   -2.1489 H       1  UNL1        0.0000
     61 C           1.3164    6.1288   -1.0108 C.3     1  UNL1        0.0000
     62 H           0.7804    6.2781   -1.9409 H       1  UNL1        0.0000
     63 H           1.1343    6.9870   -0.3755 H       1  UNL1        0.0000
     64 H           2.3728    6.1060   -1.2408 H       1  UNL1        0.0000
     65 H          -1.3508    3.9417   -1.3803 H       1  UNL1        0.0000
     66 H          -1.6066    5.3118   -0.2932 H       1  UNL1        0.0000
     67 C          -3.1496    4.1007    1.6149 C.3     1  UNL1        0.0000
     68 H          -3.6935    4.6567    0.8507 H       1  UNL1        0.0000
     69 H          -3.8177    3.3659    2.0673 H       1  UNL1        0.0000
     70 C          -2.4135    1.7774   -0.0476 C.3     1  UNL1        0.0000
     71 C          -2.7649    0.6604    0.9347 C.3     1  UNL1        0.0000
     72 C          -3.2393   -0.5804    0.1829 C.3     1  UNL1        0.0000
     73 C          -4.4367   -0.2444   -0.7024 C.3     1  UNL1        0.0000
     74 C          -4.0857    0.8775   -1.6758 C.3     1  UNL1        0.0000
     75 C          -3.6228    2.1179   -0.9142 C.3     1  UNL1        0.0000
     76 H          -1.5868    1.4363   -0.6888 H       1  UNL1        0.0000
     77 H          -4.4379    2.4703   -0.2781 H       1  UNL1        0.0000
     78 H          -3.3780    2.9165   -1.6184 H       1  UNL1        0.0000
     79 H          -3.2877    0.5420   -2.3424 H       1  UNL1        0.0000
     80 H          -4.9548    1.1228   -2.2906 H       1  UNL1        0.0000
     81 H          -4.7512   -1.1316   -1.2559 H       1  UNL1        0.0000
     82 H          -5.2735    0.0717   -0.0747 H       1  UNL1        0.0000
     83 H          -2.4232   -0.9575   -0.4376 H       1  UNL1        0.0000
     84 H          -3.5095   -1.3652    0.8924 H       1  UNL1        0.0000
     85 H          -1.8872    0.4176    1.5468 H       1  UNL1        0.0000
     86 H          -3.5598    1.0038    1.6046 H       1  UNL1        0.0000
@<TRIPOS>BOND
     1    79    74    1
     2    80    74    1
     3    60    57    1
     4    62    61    1
     5    74    75    1
     6    74    73    1
     7    78    75    1
     8    65    45    1
     9    81    73    1
    10    64    61    1
    11    57    58    1
    12    57    59    1
    13    57    46    1
    14    61    63    1
    15    61    46    1
    16    75    77    1
    17    75    70    1
    18    73    82    1
    19    73    72    1
    20    76    70    1
    21    83    72    1
    22    45    66    1
    23    45    46    1
    24    45    44    1
    25    46    47    1
    26    70    44    1
    27    70    71    1
    28    72    84    1
    29    72    71    1
    30    54    53    1
    31    56    53    1
    32    68    67    1
    33    44    67    1
    34    71    85    1
    35    71    86    1
    36    53    55    1
    37    53    48    1
    38    29     9    1
    39    47    48    1
    40    67    69    1
    41    67     3    1
    42    28     9    1
    43     9    27    1
    44     9     3    1
    45    48    49    1
    46    48     6    1
    47    50    49    1
    48     3     4    1
    49     3    10    1
    50    49    51    1
    51    49    52    1
    52    20     6    1
    53    31    10    1
    54     6     1    1
    55     6    19    1
    56     4     2    1
    57    35    12    1
    58    10    32    1
    59    10    30    1
    60    34    12    1
    61     1    11    1
    62     1     5    1
    63    12    11    1
    64    12    13    1
    65    37    13    1
    66    18     5    1
    67    22     7    1
    68     2     5    1
    69     2     7    1
    70     2     8    1
    71    42    16    1
    72    11    16    1
    73    11    33    1
    74     5    17    1
    75    13    14    1
    76    13    36    1
    77    39    14    1
    78     7    21    1
    79     7    23    1
    80    25     8    1
    81    16    43    1
    82    16    15    1
    83    14    38    1
    84    14    15    1
    85     8    26    1
    86     8    24    1
    87    15    41    1
    88    15    40    1
