@<TRIPOS>MOLECULE
1,2,7,8
 74 76 0 0 0
SMALL
GASTEIGER

@<TRIPOS>ATOM
      1 P           5.6137    1.9359   12.4455 P.3     1  UNL1        0.0000
      2 P           1.5147    4.5327   13.3474 P.3     1  UNL1        0.0000
      3 SI          5.5742    4.3389   10.6649 Si      1  UNL1        0.0000
      4 SI          3.3001    6.1268   11.4988 Si      1  UNL1        0.0000
      5 SI          0.9387    2.3735   11.3842 Si      1  UNL1        0.0000
      6 SI          3.2809    0.5516   11.1415 Si      1  UNL1        0.0000
      7 N           4.1148    4.6194   11.5173 N.3     1  UNL1        0.0000
      8 N           2.5391    1.9370   11.8527 N.3     1  UNL1        0.0000
      9 C           6.7226    3.1228   11.6513 C.3     1  UNL1        0.0000
     10 C           1.4943    5.8969   12.1441 C.3     1  UNL1        0.0000
     11 C           0.1758    3.4443   12.7965 C.3     1  UNL1        0.0000
     12 C           5.1910    0.7729   11.1241 C.3     1  UNL1        0.0000
     13 C           5.2131    3.6182    8.9233 C.3     1  UNL1        0.0000
     14 C           6.6996    5.8666   10.4238 C.3     1  UNL1        0.0000
     15 C           3.1426    6.9023    9.7614 C.3     1  UNL1        0.0000
     16 C           4.0428    7.4294   12.6986 C.3     1  UNL1        0.0000
     17 C          -0.2822    0.9073   11.2313 C.3     1  UNL1        0.0000
     18 C           0.9388    3.3592    9.7425 C.3     1  UNL1        0.0000
     19 C           2.9212   -1.0500   12.1387 C.3     1  UNL1        0.0000
     20 C           2.8146    0.2037    9.3208 C.3     1  UNL1        0.0000
     21 C           6.5620    1.0239   13.7018 C.ar    1  UNL1        0.0000
     22 C           6.3391   -0.3292   13.9430 C.ar    1  UNL1        0.0000
     23 C           6.9374   -0.9558   15.0209 C.ar    1  UNL1        0.0000
     24 C           7.7527   -0.2385   15.8802 C.ar    1  UNL1        0.0000
     25 C           7.9570    1.1153   15.6656 C.ar    1  UNL1        0.0000
     26 C           7.3578    1.7450   14.5918 C.ar    1  UNL1        0.0000
     27 C           0.9055    5.2680   14.9012 C.ar    1  UNL1        0.0000
     28 C           1.6315    5.0460   16.0663 C.ar    1  UNL1        0.0000
     29 C           1.1903    5.5719   17.2684 C.ar    1  UNL1        0.0000
     30 C           0.0222    6.3150   17.3120 C.ar    1  UNL1        0.0000
     31 C          -0.7066    6.5350   16.1532 C.ar    1  UNL1        0.0000
     32 C          -0.2671    6.0145   14.9505 C.ar    1  UNL1        0.0000
     33 H           7.2393    3.6925   12.4251 H       1  UNL1        0.0000
     34 H           7.4639    2.6077   11.0368 H       1  UNL1        0.0000
     35 H           0.8000    5.6540   11.3426 H       1  UNL1        0.0000
     36 H           1.1561    6.8080   12.6375 H       1  UNL1        0.0000
     37 H          -0.1225    2.8167   13.6390 H       1  UNL1        0.0000
     38 H          -0.6891    4.0269   12.4752 H       1  UNL1        0.0000
     39 H           5.5137    1.2221   10.1873 H       1  UNL1        0.0000
     40 H           5.7242   -0.1681   11.2493 H       1  UNL1        0.0000
     41 H           4.9627    4.4302    8.2495 H       1  UNL1        0.0000
     42 H           6.0684    3.0995    8.5014 H       1  UNL1        0.0000
     43 H           4.3707    2.9342    8.9415 H       1  UNL1        0.0000
     44 H           6.9671    6.3295   11.3674 H       1  UNL1        0.0000
     45 H           7.6180    5.6037    9.9099 H       1  UNL1        0.0000
     46 H           6.1910    6.6112    9.8256 H       1  UNL1        0.0000
     47 H           4.0892    7.3336    9.4636 H       1  UNL1        0.0000
     48 H           2.8648    6.1741    9.0087 H       1  UNL1        0.0000
     49 H           2.4034    7.6949    9.7511 H       1  UNL1        0.0000
     50 H           4.0190    7.0670   13.7244 H       1  UNL1        0.0000
     51 H           5.0767    7.6435   12.4508 H       1  UNL1        0.0000
     52 H           3.4960    8.3673   12.6660 H       1  UNL1        0.0000
     53 H          -1.2861    1.2588   11.0194 H       1  UNL1        0.0000
     54 H           0.0108    0.2513   10.4223 H       1  UNL1        0.0000
     55 H          -0.3269    0.3102   12.1360 H       1  UNL1        0.0000
     56 H           1.8205    3.9928    9.6917 H       1  UNL1        0.0000
     57 H           0.9654    2.6801    8.8970 H       1  UNL1        0.0000
     58 H           0.0587    3.9846    9.6266 H       1  UNL1        0.0000
     59 H           1.8586   -1.2667   12.1415 H       1  UNL1        0.0000
     60 H           3.4247   -1.9052   11.6976 H       1  UNL1        0.0000
     61 H           3.2416   -0.9653   13.1735 H       1  UNL1        0.0000
     62 H           1.7900   -0.1372    9.2479 H       1  UNL1        0.0000
     63 H           2.9119    1.0826    8.6941 H       1  UNL1        0.0000
     64 H           3.4465   -0.5729    8.9031 H       1  UNL1        0.0000
     65 H           5.6896   -0.8935   13.2892 H       1  UNL1        0.0000
     66 H           6.7613   -2.0075   15.1956 H       1  UNL1        0.0000
     67 H           8.2183   -0.7301   16.7215 H       1  UNL1        0.0000
     68 H           8.5782    1.6823   16.3439 H       1  UNL1        0.0000
     69 H           7.4918    2.8093   14.4472 H       1  UNL1        0.0000
     70 H           2.5488    4.4662   16.0193 H       1  UNL1        0.0000
     71 H           1.7584    5.4034   18.1714 H       1  UNL1        0.0000
     72 H          -0.3227    6.7256   18.2497 H       1  UNL1        0.0000
     73 H          -1.6182    7.1140   16.1904 H       1  UNL1        0.0000
     74 H          -0.8320    6.1851   14.0438 H       1  UNL1        0.0000
@<TRIPOS>BOND
     1    41    13    1
     2    42    13    1
     3    63    20    1
     4    57    18    1
     5    64    20    1
     6    13    43    1
     7    13     3    1
     8    48    15    1
     9    62    20    1
    10    20     6    1
    11    47    15    1
    12    58    18    1
    13    56    18    1
    14    18     5    1
    15    49    15    1
    16    15     4    1
    17    46    14    1
    18    45    14    1
    19    39    12    1
    20    54    17    1
    21    14     3    1
    22    14    44    1
    23     3     7    1
    24     3     9    1
    25    53    17    1
    26    34     9    1
    27    12     6    1
    28    12    40    1
    29    12     1    1
    30     6     8    1
    31     6    19    1
    32    17     5    1
    33    17    55    1
    34    35    10    1
    35     5     8    1
    36     5    11    1
    37     4     7    1
    38     4    10    1
    39     4    16    1
    40     9    33    1
    41     9     1    1
    42    60    19    1
    43    19    59    1
    44    19    61    1
    45    10    36    1
    46    10     2    1
    47     1    21    1
    48    51    16    1
    49    38    11    1
    50    52    16    1
    51    16    50    1
    52    11     2    1
    53    11    37    1
    54    65    22    1
    55     2    27    1
    56    21    22   ar
    57    21    26   ar
    58    22    23   ar
    59    74    32    1
    60    69    26    1
    61    26    25   ar
    62    27    32   ar
    63    27    28   ar
    64    32    31   ar
    65    23    66    1
    66    23    24   ar
    67    25    24   ar
    68    25    68    1
    69    24    67    1
    70    70    28    1
    71    28    29   ar
    72    31    73    1
    73    31    30   ar
    74    29    30   ar
    75    29    71    1
    76    30    72    1
