@<TRIPOS>MOLECULE
1,2,7,8
 74 76 0 0 0
SMALL
GASTEIGER

@<TRIPOS>ATOM
      1 P           0.6208    5.6872    3.6169 P.3     1  UNL1        0.0000
      2 P           2.7211    1.3665    5.2309 P.3     1  UNL1        0.0000
      3 SI          3.4638    5.3259    2.5048 Si      1  UNL1        0.0000
      4 SI         -0.5000    3.3280    2.0770 Si      1  UNL1        0.0000
      5 SI          1.0038    0.8966    2.8242 Si      1  UNL1        0.0000
      6 SI          4.8965    2.9770    3.7272 Si      1  UNL1        0.0000
      7 N           3.5469    4.0089    3.5840 N.3     1  UNL1        0.0000
      8 N           0.6604    2.5599    3.0856 N.3     1  UNL1        0.0000
      9 C           2.1043    6.5757    3.0743 C.3     1  UNL1        0.0000
     10 C          -0.1702    5.2182    2.0412 C.3     1  UNL1        0.0000
     11 C           1.6651    0.1176    4.4526 C.3     1  UNL1        0.0000
     12 C           4.2826    1.2428    4.2989 C.3     1  UNL1        0.0000
     13 C           3.1046    4.7838    0.7008 C.3     1  UNL1        0.0000
     14 C           5.0474    6.4021    2.4653 C.3     1  UNL1        0.0000
     15 C          -0.4945    2.8041    0.2393 C.3     1  UNL1        0.0000
     16 C          -2.2927    3.0972    2.7315 C.3     1  UNL1        0.0000
     17 C           2.2641    0.6454    1.4013 C.3     1  UNL1        0.0000
     18 C          -0.5219   -0.1959    2.4390 C.3     1  UNL1        0.0000
     19 C           5.8615    2.6403    2.1110 C.3     1  UNL1        0.0000
     20 C           6.2105    3.6041    4.9831 C.3     1  UNL1        0.0000
     21 C          -0.5026    6.9574    4.3004 C.ar    1  UNL1        0.0000
     22 C          -0.0348    8.1182    4.9065 C.ar    1  UNL1        0.0000
     23 C          -0.9189    9.0195    5.4730 C.ar    1  UNL1        0.0000
     24 C          -2.2800    8.7675    5.4544 C.ar    1  UNL1        0.0000
     25 C          -2.7549    7.6035    4.8713 C.ar    1  UNL1        0.0000
     26 C          -1.8731    6.7035    4.3041 C.ar    1  UNL1        0.0000
     27 C           3.1563    0.7023    6.8759 C.ar    1  UNL1        0.0000
     28 C           2.2875   -0.1132    7.5934 C.ar    1  UNL1        0.0000
     29 C           2.6185   -0.5466    8.8648 C.ar    1  UNL1        0.0000
     30 C           3.8151   -0.1596    9.4439 C.ar    1  UNL1        0.0000
     31 C           4.6782    0.6697    8.7460 C.ar    1  UNL1        0.0000
     32 C           4.3496    1.1004    7.4746 C.ar    1  UNL1        0.0000
     33 H           1.8353    7.2792    2.2838 H       1  UNL1        0.0000
     34 H           2.5022    7.1430    3.9137 H       1  UNL1        0.0000
     35 H          -1.0874    5.7846    1.8938 H       1  UNL1        0.0000
     36 H           0.5154    5.4718    1.2376 H       1  UNL1        0.0000
     37 H           2.2119   -0.8136    4.3049 H       1  UNL1        0.0000
     38 H           0.8148   -0.0710    5.1045 H       1  UNL1        0.0000
     39 H           5.0288    0.7267    4.9011 H       1  UNL1        0.0000
     40 H           4.0784    0.6308    3.4242 H       1  UNL1        0.0000
     41 H           2.3733    3.9822    0.6785 H       1  UNL1        0.0000
     42 H           2.7425    5.5966    0.0778 H       1  UNL1        0.0000
     43 H           4.0158    4.4100    0.2464 H       1  UNL1        0.0000
     44 H           5.8683    5.8331    2.0469 H       1  UNL1        0.0000
     45 H           4.9189    7.2903    1.8556 H       1  UNL1        0.0000
     46 H           5.3463    6.7195    3.4583 H       1  UNL1        0.0000
     47 H          -0.8396    1.7836    0.1356 H       1  UNL1        0.0000
     48 H          -1.1573    3.4344   -0.3441 H       1  UNL1        0.0000
     49 H           0.4922    2.8609   -0.2049 H       1  UNL1        0.0000
     50 H          -2.3702    3.3449    3.7861 H       1  UNL1        0.0000
     51 H          -3.0033    3.7121    2.1863 H       1  UNL1        0.0000
     52 H          -2.6045    2.0650    2.6173 H       1  UNL1        0.0000
     53 H           2.7794   -0.3085    1.4630 H       1  UNL1        0.0000
     54 H           1.7499    0.6725    0.4470 H       1  UNL1        0.0000
     55 H           3.0068    1.4366    1.3989 H       1  UNL1        0.0000
     56 H          -1.2882   -0.1078    3.2012 H       1  UNL1        0.0000
     57 H          -0.9667    0.0888    1.4947 H       1  UNL1        0.0000
     58 H          -0.2457   -1.2426    2.3670 H       1  UNL1        0.0000
     59 H           6.6461    1.9065    2.2635 H       1  UNL1        0.0000
     60 H           5.2206    2.2801    1.3144 H       1  UNL1        0.0000
     61 H           6.3302    3.5529    1.7633 H       1  UNL1        0.0000
     62 H           6.9441    2.8380    5.2175 H       1  UNL1        0.0000
     63 H           6.7457    4.4462    4.5573 H       1  UNL1        0.0000
     64 H           5.7707    3.9434    5.9156 H       1  UNL1        0.0000
     65 H           1.0246    8.3241    4.9355 H       1  UNL1        0.0000
     66 H          -0.5433    9.9220    5.9332 H       1  UNL1        0.0000
     67 H          -2.9682    9.4724    5.8969 H       1  UNL1        0.0000
     68 H          -3.8154    7.3970    4.8632 H       1  UNL1        0.0000
     69 H          -2.2448    5.7916    3.8584 H       1  UNL1        0.0000
     70 H           1.3472   -0.4151    7.1566 H       1  UNL1        0.0000
     71 H           1.9387   -1.1874    9.4078 H       1  UNL1        0.0000
     72 H           4.0722   -0.4986   10.4366 H       1  UNL1        0.0000
     73 H           5.6088    0.9824    9.1974 H       1  UNL1        0.0000
     74 H           5.0213    1.7531    6.9366 H       1  UNL1        0.0000
@<TRIPOS>BOND
     1    48    15    1
     2    49    15    1
     3    42    13    1
     4    47    15    1
     5    15     4    1
     6    43    13    1
     7    54    17    1
     8    41    13    1
     9    13     3    1
    10    36    10    1
    11    60    19    1
    12    55    17    1
    13    17    53    1
    14    17     5    1
    15    57    18    1
    16    61    19    1
    17    45    14    1
    18    35    10    1
    19    10     4    1
    20    10     1    1
    21    44    14    1
    22     4    16    1
    23     4     8    1
    24    19    59    1
    25    19     6    1
    26    51    16    1
    27    33     9    1
    28    58    18    1
    29    18     5    1
    30    18    56    1
    31    14     3    1
    32    14    46    1
    33     3     9    1
    34     3     7    1
    35    52    16    1
    36    16    50    1
    37     5     8    1
    38     5    11    1
    39     9     1    1
    40     9    34    1
    41    40    12    1
    42     7     6    1
    43     1    21    1
    44     6    12    1
    45     6    20    1
    46    69    26    1
    47    12    39    1
    48    12     2    1
    49    21    26   ar
    50    21    22   ar
    51    26    25   ar
    52    37    11    1
    53    11    38    1
    54    11     2    1
    55    63    20    1
    56    68    25    1
    57    25    24   ar
    58    22    65    1
    59    22    23   ar
    60    20    62    1
    61    20    64    1
    62     2    27    1
    63    24    23   ar
    64    24    67    1
    65    23    66    1
    66    27    32   ar
    67    27    28   ar
    68    74    32    1
    69    70    28    1
    70    32    31   ar
    71    28    29   ar
    72    31    73    1
    73    31    30   ar
    74    29    71    1
    75    29    30   ar
    76    30    72    1
