@<TRIPOS>MOLECULE
2,3,4,5
 78 77 0 0 0
SMALL
GASTEIGER

@<TRIPOS>ATOM
      1 SI         12.3577   13.1543    1.2797 Si      1  UNL1        0.0000
      2 P          10.4892    9.6615    1.5221 P.3     1  UNL1        0.0000
      3 P          14.1249    9.3393    1.6625 P.3     1  UNL1        0.0000
      4 N          12.5359   11.5600    0.4377 N.3     1  UNL1        0.0000
      5 N          12.5198   12.4933    2.8254 N.3     1  UNL1        0.0000
      6 C          15.8076    9.7192    2.4077 C.3     1  UNL1        0.0000
      7 H          16.5827    9.1786    1.8520 H       1  UNL1        0.0000
      8 C           8.8435    9.8085    2.4126 C.3     1  UNL1        0.0000
      9 H           8.0285    9.6156    1.7051 H       1  UNL1        0.0000
     10 C          11.5083   11.1832   -0.5174 C.3     1  UNL1        0.0000
     11 H          11.3667   11.9748   -1.2720 H       1  UNL1        0.0000
     12 H          11.8370   10.2865   -1.0545 H       1  UNL1        0.0000
     13 C          10.7322   14.0835    0.8304 C.3     1  UNL1        0.0000
     14 H          10.8892   15.1510    0.9523 H       1  UNL1        0.0000
     15 H           9.9101   13.8110    1.4843 H       1  UNL1        0.0000
     16 H          10.4158   13.9240   -0.1958 H       1  UNL1        0.0000
     17 C          14.0154    6.6954    2.6433 C.3     1  UNL1        0.0000
     18 H          13.5430    5.7360    2.4388 H       1  UNL1        0.0000
     19 H          13.3892    7.2506    3.3428 H       1  UNL1        0.0000
     20 H          14.9671    6.4943    3.1283 H       1  UNL1        0.0000
     21 C          13.6925   14.3633    0.5965 C.3     1  UNL1        0.0000
     22 H          13.4370   15.3853    0.8564 H       1  UNL1        0.0000
     23 H          13.7691   14.3158   -0.4863 H       1  UNL1        0.0000
     24 H          14.6797   14.1687    1.0050 H       1  UNL1        0.0000
     25 C          13.8464   11.3747   -0.1666 C.3     1  UNL1        0.0000
     26 H          14.5537   12.0090    0.3559 H       1  UNL1        0.0000
     27 H          13.8301   11.6984   -1.2197 H       1  UNL1        0.0000
     28 C          10.3219    8.0342    0.5758 C.3     1  UNL1        0.0000
     29 H          11.0955    8.1360   -0.2002 H       1  UNL1        0.0000
     30 C          15.8129    9.2816    3.8704 C.3     1  UNL1        0.0000
     31 H          16.6677    9.7074    4.3946 H       1  UNL1        0.0000
     32 H          15.8680    8.2017    3.9639 H       1  UNL1        0.0000
     33 H          14.9032    9.6175    4.3669 H       1  UNL1        0.0000
     34 C           8.7842    8.8079    3.5633 C.3     1  UNL1        0.0000
     35 H           7.8937    8.9774    4.1679 H       1  UNL1        0.0000
     36 H           9.6599    8.9196    4.2009 H       1  UNL1        0.0000
     37 H           8.7524    7.7848    3.2010 H       1  UNL1        0.0000
     38 C          16.0751   11.2185    2.3123 C.3     1  UNL1        0.0000
     39 H          16.8689   11.5055    3.0012 H       1  UNL1        0.0000
     40 H          15.1703   11.7692    2.5763 H       1  UNL1        0.0000
     41 H          16.3895   11.5031    1.3103 H       1  UNL1        0.0000
     42 C          10.1857   10.8727    0.1600 C.3     1  UNL1        0.0000
     43 H           9.4619   10.5033   -0.5697 H       1  UNL1        0.0000
     44 H           9.7914   11.7745    0.6179 H       1  UNL1        0.0000
     45 C          14.3479    9.9339   -0.0807 C.3     1  UNL1        0.0000
     46 H          15.3931    9.8870   -0.3946 H       1  UNL1        0.0000
     47 H          13.7616    9.2780   -0.7298 H       1  UNL1        0.0000
     48 C          14.2236    7.4838    1.3491 C.3     1  UNL1        0.0000
     49 H          13.3508    7.3181    0.7023 H       1  UNL1        0.0000
     50 C           8.7334   11.2329    2.9538 C.3     1  UNL1        0.0000
     51 H           8.0904   11.2614    3.8316 H       1  UNL1        0.0000
     52 H           8.3173   11.9162    2.2162 H       1  UNL1        0.0000
     53 H           9.7254   11.5849    3.2441 H       1  UNL1        0.0000
     54 C          12.5957   13.2072    4.0874 C.3     1  UNL1        0.0000
     55 C          11.3066   12.9914    4.8988 C.3     1  UNL1        0.0000
     56 H          11.1486   11.9274    5.0682 H       1  UNL1        0.0000
     57 H          10.4546   13.4069    4.3644 H       1  UNL1        0.0000
     58 H          11.3817   13.4851    5.8652 H       1  UNL1        0.0000
     59 C          13.7776   12.6719    4.9131 C.3     1  UNL1        0.0000
     60 H          13.6904   11.5928    5.0257 H       1  UNL1        0.0000
     61 H          13.7803   13.1233    5.9027 H       1  UNL1        0.0000
     62 H          14.7201   12.9071    4.4245 H       1  UNL1        0.0000
     63 C          12.7897   14.7145    3.8831 C.3     1  UNL1        0.0000
     64 H          13.7043   14.9050    3.3299 H       1  UNL1        0.0000
     65 H          12.8516   15.2166    4.8460 H       1  UNL1        0.0000
     66 H          11.9547   15.1290    3.3253 H       1  UNL1        0.0000
     67 C          10.7034    6.8654    1.4862 C.3     1  UNL1        0.0000
     68 H          11.1814    6.0666    0.9210 H       1  UNL1        0.0000
     69 H           9.8224    6.4439    1.9631 H       1  UNL1        0.0000
     70 H          11.3825    7.2022    2.2691 H       1  UNL1        0.0000
     71 C           8.9868    7.7608   -0.1101 C.3     1  UNL1        0.0000
     72 H           9.0683    6.8527   -0.7069 H       1  UNL1        0.0000
     73 H           8.6922    8.5695   -0.7749 H       1  UNL1        0.0000
     74 H           8.1975    7.6085    0.6217 H       1  UNL1        0.0000
     75 C          15.4611    6.9846    0.6077 C.3     1  UNL1        0.0000
     76 H          15.3343    5.9290    0.3691 H       1  UNL1        0.0000
     77 H          16.3530    7.0787    1.2221 H       1  UNL1        0.0000
     78 H          15.6191    7.5236   -0.3233 H       1  UNL1        0.0000
@<TRIPOS>BOND
     1    11    10    1
     2    27    25    1
     3    12    10    1
     4    73    71    1
     5    47    45    1
     6    72    71    1
     7    43    42    1
     8    10    42    1
     9    10     4    1
    10    23    21    1
    11    46    45    1
    12    78    75    1
    13    29    28    1
    14    16    13    1
    15    25    45    1
    16    25    26    1
    17    25     4    1
    18    71    28    1
    19    71    74    1
    20    45     3    1
    21    42    44    1
    22    42     2    1
    23    76    75    1
    24     4     1    1
    25    28    67    1
    26    28     2    1
    27    21    22    1
    28    21    24    1
    29    21     1    1
    30    75    77    1
    31    75    48    1
    32    49    48    1
    33    13    14    1
    34    13     1    1
    35    13    15    1
    36    68    67    1
    37     1     5    1
    38    41    38    1
    39    48     3    1
    40    48    17    1
    41    67    69    1
    42    67    70    1
    43     2     8    1
    44     3     6    1
    45     9     8    1
    46     7     6    1
    47    52    50    1
    48    38     6    1
    49    38    40    1
    50    38    39    1
    51     6    30    1
    52     8    50    1
    53     8    34    1
    54    18    17    1
    55    17    20    1
    56    17    19    1
    57     5    54    1
    58    50    53    1
    59    50    51    1
    60    37    34    1
    61    66    63    1
    62    64    63    1
    63    34    35    1
    64    34    36    1
    65    30    32    1
    66    30    33    1
    67    30    31    1
    68    63    54    1
    69    63    65    1
    70    54    55    1
    71    54    59    1
    72    57    55    1
    73    62    59    1
    74    55    56    1
    75    55    58    1
    76    59    60    1
    77    59    61    1
