@<TRIPOS>MOLECULE
2,3,4,5
 78 77 0 0 0
SMALL
GASTEIGER

@<TRIPOS>ATOM
      1 SI         12.3452   13.0602    1.3801 Si      1  UNL1        0.0000
      2 P          10.5289    9.5508    1.5820 P.3     1  UNL1        0.0000
      3 P          14.2124    9.3511    1.6838 P.3     1  UNL1        0.0000
      4 N          12.5194   11.5523    0.4273 N.3     1  UNL1        0.0000
      5 N          12.5727   12.3816    2.9150 N.3     1  UNL1        0.0000
      6 C          12.6329   13.1216    4.1615 C.3     1  UNL1        0.0000
      7 C          11.2673   13.0824    4.8710 C.3     1  UNL1        0.0000
      8 H          11.0097   12.0541    5.1155 H       1  UNL1        0.0000
      9 H          10.5014   13.5003    4.2217 H       1  UNL1        0.0000
     10 H          11.2977   13.6616    5.7915 H       1  UNL1        0.0000
     11 C          13.6783   12.4778    5.0867 C.3     1  UNL1        0.0000
     12 H          13.4693   11.4148    5.1806 H       1  UNL1        0.0000
     13 H          13.6447   12.9351    6.0735 H       1  UNL1        0.0000
     14 H          14.6768   12.6111    4.6782 H       1  UNL1        0.0000
     15 C          13.0178   14.5923    3.9544 C.3     1  UNL1        0.0000
     16 H          13.9652   14.6620    3.4291 H       1  UNL1        0.0000
     17 H          13.1127   15.0933    4.9155 H       1  UNL1        0.0000
     18 H          12.2586   15.1016    3.3687 H       1  UNL1        0.0000
     19 C          13.6225   14.3372    0.6971 C.3     1  UNL1        0.0000
     20 H          13.3585   15.3428    1.0076 H       1  UNL1        0.0000
     21 H          13.6530   14.3331   -0.3894 H       1  UNL1        0.0000
     22 H          14.6310   14.1504    1.0537 H       1  UNL1        0.0000
     23 C          10.6917   13.9916    1.0329 C.3     1  UNL1        0.0000
     24 H          10.8332   15.0524    1.2173 H       1  UNL1        0.0000
     25 H           9.8904   13.6651    1.6881 H       1  UNL1        0.0000
     26 H          10.3511   13.8897    0.0070 H       1  UNL1        0.0000
     27 C          11.4576   11.1633   -0.4754 C.3     1  UNL1        0.0000
     28 H          11.7857   10.2889   -1.0492 H       1  UNL1        0.0000
     29 H          11.2448   11.9619   -1.2086 H       1  UNL1        0.0000
     30 C          10.1802   10.8043    0.2632 C.3     1  UNL1        0.0000
     31 H           9.4240   10.4524   -0.4431 H       1  UNL1        0.0000
     32 H           9.8001   11.6874    0.7670 H       1  UNL1        0.0000
     33 C          10.4251    7.9723    0.5369 C.3     1  UNL1        0.0000
     34 H          11.1719    8.1666   -0.2472 H       1  UNL1        0.0000
     35 C           9.0928    7.6569   -0.1363 C.3     1  UNL1        0.0000
     36 H           9.2148    6.7946   -0.7918 H       1  UNL1        0.0000
     37 H           8.7341    8.4854   -0.7424 H       1  UNL1        0.0000
     38 H           8.3309    7.4106    0.5988 H       1  UNL1        0.0000
     39 C          10.9082    6.7757    1.3540 C.3     1  UNL1        0.0000
     40 H          11.2873    5.9874    0.7042 H       1  UNL1        0.0000
     41 H          10.0999    6.3538    1.9456 H       1  UNL1        0.0000
     42 H          11.6998    7.0887    2.0325 H       1  UNL1        0.0000
     43 C           8.8295    9.6197    2.4017 C.3     1  UNL1        0.0000
     44 H           8.0534    9.5207    1.6338 H       1  UNL1        0.0000
     45 C           8.7112   10.9808    3.0856 C.3     1  UNL1        0.0000
     46 H           8.0092   10.9369    3.9168 H       1  UNL1        0.0000
     47 H           8.3611   11.7487    2.3998 H       1  UNL1        0.0000
     48 H           9.6892   11.2759    3.4715 H       1  UNL1        0.0000
     49 C           8.6705    8.5078    3.4328 C.3     1  UNL1        0.0000
     50 H           7.7278    8.6201    3.9688 H       1  UNL1        0.0000
     51 H           9.4833    8.5498    4.1528 H       1  UNL1        0.0000
     52 H           8.6729    7.5267    2.9667 H       1  UNL1        0.0000
     53 C          13.8140   11.3761   -0.2009 C.3     1  UNL1        0.0000
     54 H          14.5183   12.0510    0.2711 H       1  UNL1        0.0000
     55 H          13.7645   11.6521   -1.2678 H       1  UNL1        0.0000
     56 C          14.3561    9.9517   -0.0761 C.3     1  UNL1        0.0000
     57 H          15.3913    9.9291   -0.4256 H       1  UNL1        0.0000
     58 H          13.7680    9.2669   -0.6938 H       1  UNL1        0.0000
     59 C          14.4711    7.5104    1.3090 C.3     1  UNL1        0.0000
     60 H          13.6191    7.2955    0.6494 H       1  UNL1        0.0000
     61 C          14.3205    6.6560    2.5678 C.3     1  UNL1        0.0000
     62 H          13.9416    5.6656    2.3187 H       1  UNL1        0.0000
     63 H          13.6360    7.1268    3.2720 H       1  UNL1        0.0000
     64 H          15.2803    6.5237    3.0614 H       1  UNL1        0.0000
     65 C          15.7466    7.1253    0.5634 C.3     1  UNL1        0.0000
     66 H          15.6979    6.0709    0.2915 H       1  UNL1        0.0000
     67 H          16.6253    7.2634    1.1886 H       1  UNL1        0.0000
     68 H          15.8719    7.7009   -0.3498 H       1  UNL1        0.0000
     69 C          15.9000    9.8554    2.3535 C.3     1  UNL1        0.0000
     70 H          16.6873    9.3789    1.7585 H       1  UNL1        0.0000
     71 C          16.0115    9.4141    3.8083 C.3     1  UNL1        0.0000
     72 H          16.9531    9.7529    4.2401 H       1  UNL1        0.0000
     73 H          15.9648    8.3340    3.9043 H       1  UNL1        0.0000
     74 H          15.1923    9.8463    4.3790 H       1  UNL1        0.0000
     75 C          16.0509   11.3715    2.2744 C.3     1  UNL1        0.0000
     76 H          16.8313   11.7100    2.9560 H       1  UNL1        0.0000
     77 H          15.1089   11.8469    2.5562 H       1  UNL1        0.0000
     78 H          16.3285   11.6917    1.2727 H       1  UNL1        0.0000
@<TRIPOS>BOND
     1    55    53    1
     2    29    27    1
     3    28    27    1
     4    36    35    1
     5    37    35    1
     6    58    56    1
     7    27    30    1
     8    27     4    1
     9    31    30    1
    10    57    56    1
    11    21    19    1
    12    68    65    1
    13    34    33    1
    14    53    56    1
    15    53    54    1
    16    53     4    1
    17    35    33    1
    18    35    38    1
    19    56     3    1
    20    26    23    1
    21    30    32    1
    22    30     2    1
    23    66    65    1
    24     4     1    1
    25    33    39    1
    26    33     2    1
    27    65    67    1
    28    65    59    1
    29    60    59    1
    30    19    20    1
    31    19    22    1
    32    19     1    1
    33    40    39    1
    34    23    24    1
    35    23     1    1
    36    23    25    1
    37    78    75    1
    38    59     3    1
    39    59    61    1
    40    39    41    1
    41    39    42    1
    42     1     5    1
    43     2    43    1
    44    44    43    1
    45     3    69    1
    46    70    69    1
    47    75    69    1
    48    75    77    1
    49    75    76    1
    50    62    61    1
    51    69    71    1
    52    47    45    1
    53    43    45    1
    54    43    49    1
    55    61    64    1
    56    61    63    1
    57     5     6    1
    58    52    49    1
    59    45    48    1
    60    45    46    1
    61    18    15    1
    62    16    15    1
    63    49    50    1
    64    49    51    1
    65    71    73    1
    66    71    72    1
    67    71    74    1
    68    15     6    1
    69    15    17    1
    70     6     7    1
    71     6    11    1
    72     9     7    1
    73    14    11    1
    74     7     8    1
    75     7    10    1
    76    11    12    1
    77    11    13    1
