@<TRIPOS>MOLECULE
1,2,30
 44 46 0 0 0
SMALL
GASTEIGER

@<TRIPOS>ATOM
      1 C           2.6714    1.8773    1.7670 C.3     1  UNL1        0.0000
      2 C           1.9164    0.7899    1.1281 C.2     1  UNL1        0.0000
      3 C           2.0721   -0.5271    1.3609 C.2     1  UNL1        0.0000
      4 C           1.4343   -1.5947    0.5354 C.3     1  UNL1        0.0000
      5 B           2.4336   -2.8450    0.0834 B       1  UNL1        0.0000
      6 C           1.5580   -3.9424   -0.7612 C.ar    1  UNL1        0.0000
      7 C           0.9188   -3.5171   -1.9227 C.ar    1  UNL1        0.0000
      8 F           1.0885   -2.2442   -2.3477 F       1  UNL1        0.0000
      9 C           0.1321   -4.3380   -2.7184 C.ar    1  UNL1        0.0000
     10 F          -0.4553   -3.8510   -3.8211 F       1  UNL1        0.0000
     11 C          -0.0307   -5.6726   -2.3701 C.ar    1  UNL1        0.0000
     12 F          -0.7895   -6.4817   -3.1161 F       1  UNL1        0.0000
     13 C           0.6342   -6.1547   -1.2509 C.ar    1  UNL1        0.0000
     14 F           0.5306   -7.4469   -0.9226 F       1  UNL1        0.0000
     15 C           1.4194   -5.2986   -0.4829 C.ar    1  UNL1        0.0000
     16 F           2.0876   -5.8592    0.5337 F       1  UNL1        0.0000
     17 C           3.0723   -3.3913    1.4769 C.ar    1  UNL1        0.0000
     18 C           2.2751   -4.0084    2.4411 C.ar    1  UNL1        0.0000
     19 F           0.9720   -4.2042    2.1970 F       1  UNL1        0.0000
     20 C           2.7532   -4.4198    3.6789 C.ar    1  UNL1        0.0000
     21 F           1.9377   -5.0125    4.5569 F       1  UNL1        0.0000
     22 C           4.0827   -4.1923    4.0172 C.ar    1  UNL1        0.0000
     23 F           4.5603   -4.5721    5.2065 F       1  UNL1        0.0000
     24 C           4.8965   -3.5319    3.1084 C.ar    1  UNL1        0.0000
     25 F           6.1694   -3.2452    3.4215 F       1  UNL1        0.0000
     26 C           4.3784   -3.1435    1.8787 C.ar    1  UNL1        0.0000
     27 F           5.2152   -2.4346    1.0753 F       1  UNL1        0.0000
     28 C           3.6506   -2.4672   -0.9576 C.ar    1  UNL1        0.0000
     29 C           4.0502   -1.2054   -1.3285 C.ar    1  UNL1        0.0000
     30 F           3.4224   -0.0441   -0.8788 F       1  UNL1        0.0000
     31 C           5.1271   -0.8905   -2.1404 C.ar    1  UNL1        0.0000
     32 F           5.3652    0.4490   -2.2698 F       1  UNL1        0.0000
     33 C           5.8853   -1.8942   -2.7073 C.ar    1  UNL1        0.0000
     34 F           6.9296   -1.6323   -3.4901 F       1  UNL1        0.0000
     35 C           5.5077   -3.2071   -2.4057 C.ar    1  UNL1        0.0000
     36 F           6.2028   -4.2157   -2.9288 F       1  UNL1        0.0000
     37 C           4.4372   -3.4661   -1.5542 C.ar    1  UNL1        0.0000
     38 F           4.1831   -4.7477   -1.2925 F       1  UNL1        0.0000
     39 H           3.0606    1.5691    2.7448 H       1  UNL1        0.0000
     40 H           2.0686    2.7861    1.8829 H       1  UNL1        0.0000
     41 H           1.1795    1.0777    0.3719 H       1  UNL1        0.0000
     42 H           2.7019   -0.8581    2.1811 H       1  UNL1        0.0000
     43 H           0.9520   -1.1265   -0.3225 H       1  UNL1        0.0000
     44 H           0.6360   -2.0566    1.1216 H       1  UNL1        0.0000
@<TRIPOS>BOND
     1    10     9    1
     2    34    33    1
     3    12    11    1
     4    36    35    1
     5     9    11   ar
     6     9     7   ar
     7    33    35   ar
     8    33    31   ar
     9    35    37   ar
    10    11    13   ar
    11     8     7    1
    12    32    31    1
    13    31    29   ar
    14     7     6   ar
    15    37    38    1
    16    37    28   ar
    17    29    28   ar
    18    29    30    1
    19    13    14    1
    20    13    15   ar
    21    28     5    1
    22     6    15   ar
    23     6     5    1
    24    15    16    1
    25    43     4    1
    26     5     4    1
    27     5    17    1
    28    41     2    1
    29     4    44    1
    30     4     3    1
    31    27    26    1
    32     2     3    2
    33     2     1    1
    34     3    42    1
    35    17    26   ar
    36    17    18   ar
    37     1    40    1
    38     1    39    1
    39    26    24   ar
    40    19    18    1
    41    18    20   ar
    42    24    25    1
    43    24    22   ar
    44    20    22   ar
    45    20    21    1
    46    22    23    1
