@<TRIPOS>MOLECULE
2,3,4,5,6,7,8
 42 42 0 0 0
SMALL
GASTEIGER

@<TRIPOS>ATOM
      1 SI          1.9244    3.1094    3.2438 Si      1  UNL1        0.0000
      2 O           5.7180    3.3007    5.5039 O.3     1  UNL1        0.0000
      3 N           3.2120    3.3715    4.3574 N.3     1  UNL1        0.0000
      4 C           2.6126    4.3095    1.9542 C.3     1  UNL1        0.0000
      5 C           3.5561    4.0108    0.9293 C.3     1  UNL1        0.0000
      6 C           4.2734    5.1854    0.6195 C.2     1  UNL1        0.0000
      7 C           3.8086    6.2256    1.4656 C.2     1  UNL1        0.0000
      8 C           2.8001    5.6860    2.2945 C.3     1  UNL1        0.0000
      9 C           0.1818    3.5667    3.9087 C.3     1  UNL1        0.0000
     10 C           1.7323    1.2709    2.7208 C.3     1  UNL1        0.0000
     11 C           3.4693    2.5023    5.4744 C.3     1  UNL1        0.0000
     12 C           4.5949    3.0712    6.3427 C.3     1  UNL1        0.0000
     13 C           6.8900    3.5901    6.2377 C.3     1  UNL1        0.0000
     14 C           3.5849    2.7613    0.0927 C.3     1  UNL1        0.0000
     15 C           5.2192    5.3713   -0.5335 C.3     1  UNL1        0.0000
     16 C           4.1638    7.6772    1.2952 C.3     1  UNL1        0.0000
     17 C           1.9676    6.4434    3.2954 C.3     1  UNL1        0.0000
     18 H          -0.4849    3.8601    3.1051 H       1  UNL1        0.0000
     19 H           0.2182    4.3809    4.6236 H       1  UNL1        0.0000
     20 H          -0.2670    2.7140    4.4081 H       1  UNL1        0.0000
     21 H           1.0970    1.1542    1.8499 H       1  UNL1        0.0000
     22 H           1.2673    0.7245    3.5353 H       1  UNL1        0.0000
     23 H           2.6846    0.7917    2.5161 H       1  UNL1        0.0000
     24 H           3.7735    1.4918    5.1469 H       1  UNL1        0.0000
     25 H           2.5808    2.3815    6.1125 H       1  UNL1        0.0000
     26 H           4.2773    4.0188    6.8030 H       1  UNL1        0.0000
     27 H           4.8581    2.3584    7.1370 H       1  UNL1        0.0000
     28 H           6.7676    4.4880    6.8534 H       1  UNL1        0.0000
     29 H           7.6832    3.7534    5.5114 H       1  UNL1        0.0000
     30 H           7.1597    2.7507    6.8900 H       1  UNL1        0.0000
     31 H           3.1313    2.9570   -0.8822 H       1  UNL1        0.0000
     32 H           3.0196    1.9648    0.5650 H       1  UNL1        0.0000
     33 H           4.6022    2.4146   -0.0882 H       1  UNL1        0.0000
     34 H           6.1107    5.9245   -0.2347 H       1  UNL1        0.0000
     35 H           4.7373    5.9315   -1.3377 H       1  UNL1        0.0000
     36 H           5.5321    4.4117   -0.9380 H       1  UNL1        0.0000
     37 H           3.5178    8.1384    0.5440 H       1  UNL1        0.0000
     38 H           5.1918    7.7894    0.9553 H       1  UNL1        0.0000
     39 H           4.0482    8.2378    2.2208 H       1  UNL1        0.0000
     40 H           2.1280    6.0706    4.3116 H       1  UNL1        0.0000
     41 H           0.9088    6.3319    3.0622 H       1  UNL1        0.0000
     42 H           2.2019    7.5063    3.2714 H       1  UNL1        0.0000
@<TRIPOS>BOND
     1    35    15    1
     2    36    15    1
     3    31    14    1
     4    15    34    1
     5    15     6    1
     6    33    14    1
     7    14    32    1
     8    14     5    1
     9    37    16    1
    10     6     5    1
    11     6     7    2
    12     5     4    1
    13    38    16    1
    14    16     7    1
    15    16    39    1
    16     7     8    1
    17    21    10    1
    18     4     8    1
    19     4     1    1
    20     8    17    1
    21    23    10    1
    22    10     1    1
    23    10    22    1
    24    41    17    1
    25    18     9    1
    26     1     9    1
    27     1     3    1
    28    42    17    1
    29    17    40    1
    30     9    20    1
    31     9    19    1
    32     3    11    1
    33    24    11    1
    34    11    25    1
    35    11    12    1
    36     2    13    1
    37     2    12    1
    38    29    13    1
    39    13    28    1
    40    13    30    1
    41    12    26    1
    42    12    27    1
