@<TRIPOS>MOLECULE
2,3,5,6,7,8
 42 42 0 0 0
SMALL
GASTEIGER

@<TRIPOS>ATOM
      1 SI          3.4169    1.8060   10.1740 Si      1  UNL1        0.0000
      2 O           0.0822    1.7387    7.4420 O.3     1  UNL1        0.0000
      3 N           2.2608    2.0738    8.9176 N.3     1  UNL1        0.0000
      4 C           3.9076    0.1504    9.3839 C.3     1  UNL1        0.0000
      5 C           3.1822   -1.0692    9.5501 C.2     1  UNL1        0.0000
      6 C           3.3320   -1.8567    8.3817 C.2     1  UNL1        0.0000
      7 C           4.1105   -1.1172    7.4482 C.2     1  UNL1        0.0000
      8 C           4.4474    0.1219    8.0547 C.2     1  UNL1        0.0000
      9 C           2.4756   -1.5236   10.7968 C.3     1  UNL1        0.0000
     10 H           1.3943   -1.3716   10.7206 H       1  UNL1        0.0000
     11 H           2.8441   -0.9786   11.6611 H       1  UNL1        0.0000
     12 H           2.6484   -2.5867   10.9620 H       1  UNL1        0.0000
     13 C           2.8750   -3.2801    8.2354 C.3     1  UNL1        0.0000
     14 H           1.8923   -3.4211    8.6823 H       1  UNL1        0.0000
     15 H           3.5767   -3.9553    8.7304 H       1  UNL1        0.0000
     16 H           2.8142   -3.5675    7.1879 H       1  UNL1        0.0000
     17 C           4.6405   -1.6265    6.1361 C.3     1  UNL1        0.0000
     18 H           4.6593   -0.8389    5.3835 H       1  UNL1        0.0000
     19 H           4.0239   -2.4388    5.7564 H       1  UNL1        0.0000
     20 H           5.6571   -2.0056    6.2599 H       1  UNL1        0.0000
     21 C           5.2929    1.2007    7.4352 C.3     1  UNL1        0.0000
     22 H           5.8261    0.8194    6.5663 H       1  UNL1        0.0000
     23 H           6.0248    1.5651    8.1538 H       1  UNL1        0.0000
     24 H           4.6763    2.0474    7.1152 H       1  UNL1        0.0000
     25 C           2.6419    1.7227   11.9220 C.3     1  UNL1        0.0000
     26 H           2.4215    2.7294   12.2626 H       1  UNL1        0.0000
     27 H           3.3185    1.2804   12.6448 H       1  UNL1        0.0000
     28 H           1.7131    1.1617   11.9370 H       1  UNL1        0.0000
     29 C           4.8071    3.1158   10.2822 C.3     1  UNL1        0.0000
     30 H           5.7240    2.6883   10.6726 H       1  UNL1        0.0000
     31 H           4.5112    3.9145   10.9541 H       1  UNL1        0.0000
     32 H           5.0294    3.5623    9.3196 H       1  UNL1        0.0000
     33 C           1.3159    3.1642    8.8623 C.3     1  UNL1        0.0000
     34 H           1.8177    4.1394    8.9303 H       1  UNL1        0.0000
     35 H           0.5843    3.1035    9.6858 H       1  UNL1        0.0000
     36 C           0.5593    3.0772    7.5339 C.3     1  UNL1        0.0000
     37 H          -0.2844    3.7793    7.5110 H       1  UNL1        0.0000
     38 H           1.2373    3.2858    6.6909 H       1  UNL1        0.0000
     39 C          -0.7853    1.5425    6.3323 C.3     1  UNL1        0.0000
     40 H          -1.6740    2.1746    6.4330 H       1  UNL1        0.0000
     41 H          -1.0786    0.4930    6.3480 H       1  UNL1        0.0000
     42 H          -0.2769    1.7689    5.3899 H       1  UNL1        0.0000
@<TRIPOS>BOND
     1    18    17    1
     2    42    39    1
     3    19    17    1
     4    17    20    1
     5    17     7    1
     6    39    41    1
     7    39    40    1
     8    39     2    1
     9    22    21    1
    10    38    36    1
    11    24    21    1
    12    16    13    1
    13    21     8    1
    14    21    23    1
    15     2    36    1
    16     7     8    2
    17     7     6    1
    18    37    36    1
    19    36    33    1
    20     8     4    1
    21    13     6    1
    22    13    14    1
    23    13    15    1
    24     6     5    2
    25    33     3    1
    26    33    34    1
    27    33    35    1
    28     3     1    1
    29    32    29    1
    30     4     5    1
    31     4     1    1
    32     5     9    1
    33     1    29    1
    34     1    25    1
    35    29    30    1
    36    29    31    1
    37    10     9    1
    38     9    12    1
    39     9    11    1
    40    25    28    1
    41    25    26    1
    42    25    27    1
