@<TRIPOS>MOLECULE
2,3,4,5,6,7,8
 47 48 0 0 0
SMALL
GASTEIGER

@<TRIPOS>ATOM
      1 SI          5.4454    6.2585    9.5893 Si      1  UNL1        0.0000
      2 O           5.3436    5.9094   11.2806 O.3     1  UNL1        0.0000
      3 N           5.7865    6.2786   13.9731 N.3     1  UNL1        0.0000
      4 C           7.3127    6.1918    9.6422 C.3     1  UNL1        0.0000
      5 C           7.9841    5.0300   10.1602 C.3     1  UNL1        0.0000
      6 C           9.1728    5.4484   10.7953 C.3     1  UNL1        0.0000
      7 C           9.2611    6.8720   10.6660 C.2     1  UNL1        0.0000
      8 C           8.1420    7.3205    9.9386 C.2     1  UNL1        0.0000
      9 C           7.5469    3.6173    9.8897 C.3     1  UNL1        0.0000
     10 C          10.2190    4.5908   11.4518 C.3     1  UNL1        0.0000
     11 C          10.4199    7.7264   11.0962 C.3     1  UNL1        0.0000
     12 C           7.9864    8.7041    9.3788 C.3     1  UNL1        0.0000
     13 C           4.4894    4.8692    8.6942 C.3     1  UNL1        0.0000
     14 C           4.5753    7.9241    9.2764 C.3     1  UNL1        0.0000
     15 C           4.2232    6.1931   12.1029 C.3     1  UNL1        0.0000
     16 C           4.5203    5.6695   13.5162 C.3     1  UNL1        0.0000
     17 C           3.4350    6.0767   14.5392 C.3     1  UNL1        0.0000
     18 C           4.2101    6.7907   15.6509 C.3     1  UNL1        0.0000
     19 C           5.4108    7.3605   14.8955 C.3     1  UNL1        0.0000
     20 H           6.3007    5.5795   14.5219 H       1  UNL1        0.0000
     21 H           6.6787    3.3329   10.4877 H       1  UNL1        0.0000
     22 H           8.3482    2.9181   10.1195 H       1  UNL1        0.0000
     23 H           7.2905    3.5089    8.8355 H       1  UNL1        0.0000
     24 H           9.8892    3.5555   11.5215 H       1  UNL1        0.0000
     25 H          10.4211    4.9477   12.4663 H       1  UNL1        0.0000
     26 H          11.1537    4.6215   10.8877 H       1  UNL1        0.0000
     27 H          11.1518    7.8153   10.2889 H       1  UNL1        0.0000
     28 H          10.9206    7.2955   11.9629 H       1  UNL1        0.0000
     29 H          10.0781    8.7285   11.3597 H       1  UNL1        0.0000
     30 H           7.1957    8.7216    8.6337 H       1  UNL1        0.0000
     31 H           8.9184    9.0104    8.9020 H       1  UNL1        0.0000
     32 H           7.7511    9.4368   10.1513 H       1  UNL1        0.0000
     33 H           3.4242    5.0780    8.6806 H       1  UNL1        0.0000
     34 H           4.6323    3.9004    9.1607 H       1  UNL1        0.0000
     35 H           4.8133    4.7902    7.6635 H       1  UNL1        0.0000
     36 H           4.9505    8.6946    9.9443 H       1  UNL1        0.0000
     37 H           3.5040    7.8322    9.4349 H       1  UNL1        0.0000
     38 H           4.7196    8.2598    8.2560 H       1  UNL1        0.0000
     39 H           4.0718    7.2816   12.1326 H       1  UNL1        0.0000
     40 H           3.3274    5.7075   11.6977 H       1  UNL1        0.0000
     41 H           4.6474    4.5804   13.4551 H       1  UNL1        0.0000
     42 H           2.8859    5.2137   14.9091 H       1  UNL1        0.0000
     43 H           2.7236    6.7613   14.0761 H       1  UNL1        0.0000
     44 H           4.5452    6.0744   16.4026 H       1  UNL1        0.0000
     45 H           3.6196    7.5597   16.1428 H       1  UNL1        0.0000
     46 H           6.2561    7.6218   15.5349 H       1  UNL1        0.0000
     47 H           5.1134    8.2433   14.3215 H       1  UNL1        0.0000
@<TRIPOS>BOND
     1    35    13    1
     2    38    14    1
     3    30    12    1
     4    33    13    1
     5    13    34    1
     6    13     1    1
     7    23     9    1
     8    31    12    1
     9    14    37    1
    10    14     1    1
    11    14    36    1
    12    12     8    1
    13    12    32    1
    14     1     4    1
    15     1     2    1
    16     4     8    1
    17     4     5    1
    18     9    22    1
    19     9     5    1
    20     9    21    1
    21     8     7    2
    22     5     6    1
    23    27    11    1
    24     7     6    1
    25     7    11    1
    26     6    10    1
    27    26    10    1
    28    11    29    1
    29    11    28    1
    30     2    15    1
    31    10    24    1
    32    10    25    1
    33    40    15    1
    34    15    39    1
    35    15    16    1
    36    41    16    1
    37    16     3    1
    38    16    17    1
    39     3    20    1
    40     3    19    1
    41    43    17    1
    42    47    19    1
    43    17    42    1
    44    17    18    1
    45    19    46    1
    46    19    18    1
    47    18    45    1
    48    18    44    1
