@<TRIPOS>MOLECULE
1,2,3,37
 76 79 0 0 0
SMALL
GASTEIGER

@<TRIPOS>ATOM
      1 S           2.8217    1.6596    9.0515 S.3     1  UNL1        0.0000
      2 S           2.2689    0.4864   12.3244 S.3     1  UNL1        0.0000
      3 S          -0.8731    0.3256   11.4909 S.3     1  UNL1        0.0000
      4 SI          3.6381    3.4506   11.5140 Si      1  UNL1        0.0000
      5 SI          2.0258    2.7420    6.1250 Si      1  UNL1        0.0000
      6 SI          3.7563   -2.2195   12.2407 Si      1  UNL1        0.0000
      7 SI         -3.3159    0.1114   13.6007 Si      1  UNL1        0.0000
      8 O           2.1933    3.2003   12.2138 O.3     1  UNL1        0.0000
      9 C           4.4554    4.7102   12.6780 C.3     1  UNL1        0.0000
     10 C           2.9329    3.3836    8.7625 C.ar    1  UNL1        0.0000
     11 C           3.3891    4.2030    9.8002 C.ar    1  UNL1        0.0000
     12 C           3.5500    5.5593    9.5524 C.ar    1  UNL1        0.0000
     13 C           3.2766    6.0873    8.3039 C.ar    1  UNL1        0.0000
     14 C           2.8326    5.2565    7.2892 C.ar    1  UNL1        0.0000
     15 C           2.6551    3.8942    7.4908 C.ar    1  UNL1        0.0000
     16 C           3.2519    1.3414    5.6968 C.3     1  UNL1        0.0000
     17 C           0.2822    2.0795    6.5071 C.3     1  UNL1        0.0000
     18 C           1.8597    3.7823    4.5206 C.3     1  UNL1        0.0000
     19 C           3.9869    0.6235   11.8925 C.ar    1  UNL1        0.0000
     20 C           4.6094    1.8294   11.5718 C.ar    1  UNL1        0.0000
     21 C           5.9678    1.7952   11.2716 C.ar    1  UNL1        0.0000
     22 C           6.6803    0.6128   11.2949 C.ar    1  UNL1        0.0000
     23 C           6.0335   -0.5689   11.6114 C.ar    1  UNL1        0.0000
     24 C           4.6784   -0.5917   11.9138 C.ar    1  UNL1        0.0000
     25 C           2.3904   -2.5174   10.9475 C.3     1  UNL1        0.0000
     26 C           3.0833   -2.3132   14.0296 C.3     1  UNL1        0.0000
     27 C           5.0198   -3.6486   12.0790 C.3     1  UNL1        0.0000
     28 C          -0.8229    1.3134   12.9174 C.ar    1  UNL1        0.0000
     29 C           0.2820    2.1604   13.0826 C.ar    1  UNL1        0.0000
     30 C           0.3198    3.0256   14.1680 C.ar    1  UNL1        0.0000
     31 C          -0.7123    3.0305   15.0873 C.ar    1  UNL1        0.0000
     32 C          -1.7802    2.1609   14.9328 C.ar    1  UNL1        0.0000
     33 C          -1.8621    1.2899   13.8553 C.ar    1  UNL1        0.0000
     34 C          -2.7446   -1.7106   13.5908 C.3     1  UNL1        0.0000
     35 C          -4.3062    0.5340   12.0249 C.3     1  UNL1        0.0000
     36 C          -4.5250    0.2992   15.0774 C.3     1  UNL1        0.0000
     37 C           1.3772    2.1135   12.0809 C.3     1  UNL1        0.0000
     38 H           4.7130    4.2661   13.6331 H       1  UNL1        0.0000
     39 H           5.3663    5.0892   12.2303 H       1  UNL1        0.0000
     40 H           3.7983    5.5509   12.8674 H       1  UNL1        0.0000
     41 H           3.8995    6.2035   10.3470 H       1  UNL1        0.0000
     42 H           3.4082    7.1460    8.1207 H       1  UNL1        0.0000
     43 H           2.6199    5.6765    6.3166 H       1  UNL1        0.0000
     44 H           3.3435    0.6498    6.5260 H       1  UNL1        0.0000
     45 H           2.9190    0.7853    4.8247 H       1  UNL1        0.0000
     46 H           4.2423    1.7342    5.4844 H       1  UNL1        0.0000
     47 H          -0.4405    2.8873    6.5821 H       1  UNL1        0.0000
     48 H          -0.0609    1.3923    5.7392 H       1  UNL1        0.0000
     49 H           0.2756    1.5502    7.4555 H       1  UNL1        0.0000
     50 H           2.8068    4.2195    4.2212 H       1  UNL1        0.0000
     51 H           1.5185    3.1548    3.7036 H       1  UNL1        0.0000
     52 H           1.1403    4.5869    4.6326 H       1  UNL1        0.0000
     53 H           6.4603    2.7207   11.0091 H       1  UNL1        0.0000
     54 H           7.7357    0.6081   11.0574 H       1  UNL1        0.0000
     55 H           6.5882   -1.4953   11.6169 H       1  UNL1        0.0000
     56 H           1.4390   -2.1082   11.2739 H       1  UNL1        0.0000
     57 H           2.6415   -2.0302   10.0093 H       1  UNL1        0.0000
     58 H           2.2443   -3.5743   10.7443 H       1  UNL1        0.0000
     59 H           2.7781   -3.3266   14.2735 H       1  UNL1        0.0000
     60 H           3.8342   -2.0108   14.7541 H       1  UNL1        0.0000
     61 H           2.2215   -1.6677   14.1592 H       1  UNL1        0.0000
     62 H           4.5289   -4.5994   12.2590 H       1  UNL1        0.0000
     63 H           5.4563   -3.6905   11.0868 H       1  UNL1        0.0000
     64 H           5.8274   -3.5598   12.7981 H       1  UNL1        0.0000
     65 H           1.1661    3.6874   14.2815 H       1  UNL1        0.0000
     66 H          -0.6799    3.7071   15.9308 H       1  UNL1        0.0000
     67 H          -2.5759    2.1654   15.6640 H       1  UNL1        0.0000
     68 H          -3.5830   -2.3912   13.4727 H       1  UNL1        0.0000
     69 H          -2.0575   -1.8764   12.7692 H       1  UNL1        0.0000
     70 H          -2.2305   -1.9706   14.5118 H       1  UNL1        0.0000
     71 H          -4.6934    1.5484   12.0611 H       1  UNL1        0.0000
     72 H          -3.6661    0.4548   11.1539 H       1  UNL1        0.0000
     73 H          -5.1473   -0.1399   11.8888 H       1  UNL1        0.0000
     74 H          -4.0453    0.0697   16.0232 H       1  UNL1        0.0000
     75 H          -4.9266    1.3050   15.1428 H       1  UNL1        0.0000
     76 H          -5.3644   -0.3793   14.9646 H       1  UNL1        0.0000
@<TRIPOS>BOND
     1    51    18    1
     2    50    18    1
     3    18    52    1
     4    18     5    1
     5    45    16    1
     6    46    16    1
     7    16     5    1
     8    16    44    1
     9    48    17    1
    10     5    17    1
    11     5    15    1
    12    43    14    1
    13    17    47    1
    14    17    49    1
    15    14    15   ar
    16    14    13   ar
    17    15    10   ar
    18    42    13    1
    19    13    12   ar
    20    10     1    1
    21    10    11   ar
    22    12    11   ar
    23    12    41    1
    24    11     4    1
    25    57    25    1
    26    58    25    1
    27    25    56    1
    28    25     6    1
    29    53    21    1
    30    54    22    1
    31    63    27    1
    32    72    35    1
    33    21    22   ar
    34    21    20   ar
    35    22    23   ar
    36     3    28    1
    37     4    20    1
    38     4     8    1
    39     4     9    1
    40    20    19   ar
    41    23    55    1
    42    23    24   ar
    43    73    35    1
    44    19    24   ar
    45    19     2    1
    46    24     6    1
    47    35    71    1
    48    35     7    1
    49    27     6    1
    50    27    62    1
    51    27    64    1
    52    37     8    1
    53    37     2    1
    54    37    29    1
    55    39     9    1
    56     6    26    1
    57     9    40    1
    58     9    38    1
    59    69    34    1
    60    28    29   ar
    61    28    33   ar
    62    29    30   ar
    63    68    34    1
    64    34     7    1
    65    34    70    1
    66     7    33    1
    67     7    36    1
    68    33    32   ar
    69    26    61    1
    70    26    59    1
    71    26    60    1
    72    30    65    1
    73    30    31   ar
    74    32    31   ar
    75    32    67    1
    76    76    36    1
    77    36    75    1
    78    36    74    1
    79    31    66    1
