@<TRIPOS>MOLECULE
1,2,3
 107 111 0 0 0
SMALL
GASTEIGER

@<TRIPOS>ATOM
      1 SI         12.0181   11.6761   13.0693 Si      1  UNL1        0.0000
      2 SI         11.7708    7.6930   13.3280 Si      1  UNL1        0.0000
      3 N          10.6163    9.8530   14.5489 N.pl3   1  UNL1        0.5000
      4 N          10.7091   12.1289   14.1833 N.3     1  UNL1        0.0000
      5 N          10.3870    7.5599   14.4302 N.pl3   1  UNL1        0.5000
      6 N          11.4769   12.7150   11.5768 N.3     1  UNL1        0.0000
      7 N          13.0406   13.2415   12.8883 N.3     1  UNL1        0.0000
      8 N          11.2662    6.5368   11.9066 N.3     1  UNL1        0.0000
      9 N          12.5337    5.9886   13.5007 N.3     1  UNL1        0.0000
     10 C          10.0990   11.0808   14.7966 C.3     1  UNL1        0.0000
     11 C           8.9601   11.2259   15.5943 C.2     1  UNL1        0.0000
     12 H           8.5620   12.1965   15.8305 H       1  UNL1        0.0000
     13 C           8.3355   10.0970   16.0845 C.2     1  UNL1        0.0000
     14 H           7.4686   10.1924   16.7223 H       1  UNL1        0.0000
     15 C           8.7923    8.8465   15.7221 C.2     1  UNL1        0.0000
     16 H           8.2711    7.9707   16.0658 H       1  UNL1        0.0000
     17 C           9.9292    8.7450   14.9148 C.2     1  UNL1        0.0000
     18 C          10.2181   13.4753   14.3675 C.3     1  UNL1        0.0000
     19 H           9.1252   13.4966   14.2729 H       1  UNL1        0.0000
     20 H          10.6325   14.0765   13.5566 H       1  UNL1        0.0000
     21 C          10.6386   14.0871   15.7035 C.3     1  UNL1        0.0000
     22 H          11.7205   14.1729   15.7490 H       1  UNL1        0.0000
     23 H          10.3154   13.4661   16.5348 H       1  UNL1        0.0000
     24 H          10.2036   15.0785   15.8147 H       1  UNL1        0.0000
     25 C           9.7354    6.3195   14.7861 C.3     1  UNL1        0.0000
     26 H          10.4472    5.5179   14.5829 H       1  UNL1        0.0000
     27 H           9.5171    6.3079   15.8596 H       1  UNL1        0.0000
     28 C           8.4610    6.0527   13.9850 C.3     1  UNL1        0.0000
     29 H           8.7099    5.9334   12.9345 H       1  UNL1        0.0000
     30 H           7.7591    6.8774   14.0821 H       1  UNL1        0.0000
     31 H           7.9825    5.1412   14.3378 H       1  UNL1        0.0000
     32 C          12.5143   13.5131   11.7104 C.3     1  UNL1        0.0000
     33 C          10.5803   12.4825   10.4709 C.3     1  UNL1        0.0000
     34 C          11.2325   11.5118    9.4777 C.3     1  UNL1        0.0000
     35 H          11.5628   10.6206   10.0048 H       1  UNL1        0.0000
     36 H          12.0935   11.9757    9.0031 H       1  UNL1        0.0000
     37 H          10.5219   11.2302    8.7047 H       1  UNL1        0.0000
     38 C           9.3266   11.8355   11.0698 C.3     1  UNL1        0.0000
     39 H           8.8236   12.5367   11.7304 H       1  UNL1        0.0000
     40 H           9.6021   10.9596   11.6499 H       1  UNL1        0.0000
     41 H           8.6382   11.5396   10.2825 H       1  UNL1        0.0000
     42 C          10.1745   13.7761    9.7538 C.3     1  UNL1        0.0000
     43 H          10.9973   14.1873    9.1755 H       1  UNL1        0.0000
     44 H           9.8469   14.5224   10.4743 H       1  UNL1        0.0000
     45 H           9.3507   13.5688    9.0747 H       1  UNL1        0.0000
     46 C          14.2717   13.7271   13.4732 C.3     1  UNL1        0.0000
     47 C          14.4486   13.0198   14.8169 C.3     1  UNL1        0.0000
     48 H          14.5967   11.9550   14.6582 H       1  UNL1        0.0000
     49 H          13.5658   13.1435   15.4361 H       1  UNL1        0.0000
     50 H          15.3082   13.4255   15.3443 H       1  UNL1        0.0000
     51 C          15.4743   13.3865   12.5842 C.3     1  UNL1        0.0000
     52 H          15.4564   13.9557   11.6581 H       1  UNL1        0.0000
     53 H          15.4643   12.3247   12.3502 H       1  UNL1        0.0000
     54 H          16.3968   13.6178   13.1109 H       1  UNL1        0.0000
     55 C          14.1976   15.2441   13.7029 C.3     1  UNL1        0.0000
     56 H          13.2941   15.4966   14.2538 H       1  UNL1        0.0000
     57 H          14.1953   15.7843   12.7593 H       1  UNL1        0.0000
     58 H          15.0583   15.5711   14.2811 H       1  UNL1        0.0000
     59 C          12.9925   14.4928   10.7213 C.ar    1  UNL1        0.0000
     60 C          13.8316   14.0790    9.6907 C.ar    1  UNL1        0.0000
     61 H          14.1418   13.0451    9.6427 H       1  UNL1        0.0000
     62 C          14.2718   14.9882    8.7456 C.ar    1  UNL1        0.0000
     63 H          14.9243   14.6598    7.9502 H       1  UNL1        0.0000
     64 C          13.8796   16.3147    8.8193 C.ar    1  UNL1        0.0000
     65 H          14.2240   17.0224    8.0802 H       1  UNL1        0.0000
     66 C          13.0451   16.7314    9.8431 C.ar    1  UNL1        0.0000
     67 H          12.7375   17.7649    9.9037 H       1  UNL1        0.0000
     68 C          12.6021   15.8265   10.7910 C.ar    1  UNL1        0.0000
     69 H          11.9451   16.1498   11.5855 H       1  UNL1        0.0000
     70 C          12.1423    5.6316   12.2968 C.3     1  UNL1        0.0000
     71 C          10.7128    6.7804   10.5942 C.3     1  UNL1        0.0000
     72 C          11.8213    7.2188    9.6271 C.3     1  UNL1        0.0000
     73 H          12.4885    6.3900    9.4045 H       1  UNL1        0.0000
     74 H          12.3979    8.0233   10.0781 H       1  UNL1        0.0000
     75 H          11.3873    7.5701    8.6941 H       1  UNL1        0.0000
     76 C           9.7144    7.9300   10.7537 C.3     1  UNL1        0.0000
     77 H          10.2289    8.7993   11.1533 H       1  UNL1        0.0000
     78 H           8.9219    7.6564   11.4439 H       1  UNL1        0.0000
     79 H           9.2718    8.1823    9.7935 H       1  UNL1        0.0000
     80 C           9.9866    5.5491   10.0355 C.3     1  UNL1        0.0000
     81 H           9.2697    5.1678   10.7594 H       1  UNL1        0.0000
     82 H          10.6867    4.7549    9.7902 H       1  UNL1        0.0000
     83 H           9.4491    5.8227    9.1308 H       1  UNL1        0.0000
     84 C          13.5409    5.4237   14.3699 C.3     1  UNL1        0.0000
     85 C          14.9381    5.7754   13.8452 C.3     1  UNL1        0.0000
     86 H          15.0106    6.8506   13.7005 H       1  UNL1        0.0000
     87 H          15.1332    5.2767   12.8989 H       1  UNL1        0.0000
     88 H          15.6944    5.4635   14.5610 H       1  UNL1        0.0000
     89 C          13.3492    6.0664   15.7455 C.3     1  UNL1        0.0000
     90 H          12.3626    5.8389   16.1400 H       1  UNL1        0.0000
     91 H          13.4468    7.1456   15.6615 H       1  UNL1        0.0000
     92 H          14.0978    5.6948   16.4404 H       1  UNL1        0.0000
     93 C          13.3928    3.9015   14.5014 C.3     1  UNL1        0.0000
     94 H          13.6717    3.3929   13.5821 H       1  UNL1        0.0000
     95 H          12.3657    3.6392   14.7482 H       1  UNL1        0.0000
     96 H          14.0392    3.5427   15.2984 H       1  UNL1        0.0000
     97 C          12.5920    4.4571   11.5318 C.ar    1  UNL1        0.0000
     98 C          13.7381    4.5293   10.7468 C.ar    1  UNL1        0.0000
     99 H          14.2967    5.4532   10.7031 H       1  UNL1        0.0000
    100 C          14.1570    3.4235   10.0275 C.ar    1  UNL1        0.0000
    101 H          15.0481    3.4866    9.4207 H       1  UNL1        0.0000
    102 C          13.4389    2.2409   10.0854 C.ar    1  UNL1        0.0000
    103 H          13.7690    1.3796    9.5242 H       1  UNL1        0.0000
    104 C          12.2961    2.1648   10.8649 C.ar    1  UNL1        0.0000
    105 H          11.7333    1.2443   10.9121 H       1  UNL1        0.0000
    106 C          11.8720    3.2668   11.5844 C.ar    1  UNL1        0.0000
    107 H          10.9816    3.2112   12.1935 H       1  UNL1        0.0000
@<TRIPOS>BOND
     1    63    62    1
     2    65    64    1
     3    75    72    1
     4    37    34    1
     5    62    64   ar
     6    62    60   ar
     7    64    66   ar
     8    36    34    1
     9    45    42    1
    10    83    80    1
    11    43    42    1
    12    73    72    1
    13   101   100    1
    14    34    35    1
    15    34    33    1
    16   103   102    1
    17    72    74    1
    18    72    71    1
    19    61    60    1
    20    60    59   ar
    21    42    33    1
    22    42    44    1
    23    82    80    1
    24    79    76    1
    25    66    67    1
    26    66    68   ar
    27   100   102   ar
    28   100    98   ar
    29    80    71    1
    30    80    81    1
    31   102   104   ar
    32    41    38    1
    33    33    38    1
    34    33     6    1
    35    71    76    1
    36    71     8    1
    37    99    98    1
    38    59    68   ar
    39    59    32    1
    40    98    97   ar
    41    76    77    1
    42    76    78    1
    43    68    69    1
    44   104   105    1
    45   104   106   ar
    46    38    40    1
    47    38    39    1
    48    97   106   ar
    49    97    70    1
    50     6    32    1
    51     6     1    1
    52   106   107    1
    53    52    51    1
    54    32     7    1
    55     8    70    1
    56     8     2    1
    57    70     9    1
    58    53    51    1
    59    51    54    1
    60    51    46    1
    61    57    55    1
    62     7     1    1
    63     7    46    1
    64    87    85    1
    65    29    28    1
    66     1     4    1
    67     2     9    1
    68     2     5    1
    69    46    55    1
    70    46    47    1
    71     9    84    1
    72    20    18    1
    73    94    93    1
    74    86    85    1
    75    55    56    1
    76    55    58    1
    77    85    84    1
    78    85    88    1
    79    28    30    1
    80    28    31    1
    81    28    25    1
    82     4    18    1
    83     4    10    1
    84    19    18    1
    85    18    21    1
    86    84    93    1
    87    84    89    1
    88     5    25    1
    89     5    17    1
    90    93    95    1
    91    93    96    1
    92     3    10    1
    93     3    17    1
    94    26    25    1
    95    48    47    1
    96    25    27    1
    97    10    11    1
    98    47    50    1
    99    47    49    1
   100    17    15    2
   101    11    12    1
   102    11    13    2
   103    91    89    1
   104    21    22    1
   105    21    24    1
   106    21    23    1
   107    15    16    1
   108    15    13    1
   109    89    90    1
   110    89    92    1
   111    13    14    1
