@<TRIPOS>MOLECULE
1,2,3
 33 33 0 0 0
SMALL
GASTEIGER

@<TRIPOS>ATOM
      1 SI          0.7640    5.0801    3.0920 Si      1  UNL1        0.0000
      2 SI          1.1691    0.3536    3.4902 Si      1  UNL1        0.0000
      3 N           1.7546    2.6493    1.6850 N.pl3   1  UNL1        0.0000
      4 C           1.1053    6.5085    4.3331 C.3     1  UNL1        0.0000
      5 H           1.3648    7.4222    3.8072 H       1  UNL1        0.0000
      6 H           1.9163    6.2722    5.0148 H       1  UNL1        0.0000
      7 H           0.2241    6.7123    4.9312 H       1  UNL1        0.0000
      8 C          -0.5415    5.7911    1.8621 C.3     1  UNL1        0.0000
      9 H          -1.5047    5.9140    2.3470 H       1  UNL1        0.0000
     10 H          -0.6878    5.1415    1.0028 H       1  UNL1        0.0000
     11 H          -0.2340    6.7656    1.4935 H       1  UNL1        0.0000
     12 C           2.3916    4.9749    2.0050 C.3     1  UNL1        0.0000
     13 H           2.5553    5.8402    1.3642 H       1  UNL1        0.0000
     14 H           3.2415    4.9229    2.6890 H       1  UNL1        0.0000
     15 C           2.3679    3.7395    1.1877 C.3     1  UNL1        0.0000
     16 C           2.9652    3.7149   -0.0691 C.2     1  UNL1        0.0000
     17 H           3.4350    4.6091   -0.4466 H       1  UNL1        0.0000
     18 C           2.9701    2.5464   -0.8060 C.2     1  UNL1        0.0000
     19 H           3.4428    2.5064   -1.7758 H       1  UNL1        0.0000
     20 C           2.3554    1.4303   -0.2721 C.2     1  UNL1        0.0000
     21 H           2.3341    0.4980   -0.8138 H       1  UNL1        0.0000
     22 C           1.7334    1.5089    0.9704 C.2     1  UNL1        0.0000
     23 C           1.0356    0.3301    1.5350 C.3     1  UNL1        0.0000
     24 H           1.4153   -0.5808    1.0743 H       1  UNL1        0.0000
     25 H          -0.0234    0.3968    1.2765 H       1  UNL1        0.0000
     26 C          -0.0729   -0.9928    4.0747 C.3     1  UNL1        0.0000
     27 H           0.1493   -1.9495    3.6120 H       1  UNL1        0.0000
     28 H          -1.0991   -0.7339    3.8332 H       1  UNL1        0.0000
     29 H          -0.0133   -1.1255    5.1492 H       1  UNL1        0.0000
     30 C           2.9133   -0.4012    3.8221 C.3     1  UNL1        0.0000
     31 H           3.1128   -0.4635    4.8870 H       1  UNL1        0.0000
     32 H           3.7064    0.1922    3.3742 H       1  UNL1        0.0000
     33 H           2.9817   -1.4070    3.4170 H       1  UNL1        0.0000
@<TRIPOS>BOND
     1    19    18    1
     2    21    20    1
     3    18    20    1
     4    18    16    2
     5    17    16    1
     6    20    22    2
     7    16    15    1
     8    22    23    1
     9    22     3    1
    10    10     8    1
    11    24    23    1
    12    15     3    1
    13    15    12    1
    14    25    23    1
    15    13    12    1
    16    11     8    1
    17    23     2    1
    18     8     9    1
    19     8     1    1
    20    12    14    1
    21    12     1    1
    22     1     4    1
    23    32    30    1
    24    33    30    1
    25     2    30    1
    26     2    26    1
    27    27    26    1
    28     5     4    1
    29    30    31    1
    30    28    26    1
    31    26    29    1
    32     4     7    1
    33     4     6    1
