@<TRIPOS>MOLECULE
1,11
 34 36 0 0 0
SMALL
GASTEIGER

@<TRIPOS>ATOM
      1 B           4.2063   -1.5161   20.5875 B       1  UNL1        0.0000
      2 N           4.9173   -2.3087   21.6123 N.pl3   1  UNL1        0.0000
      3 C           2.9285   -0.7359   20.9029 C.2     1  UNL1        0.0000
      4 H           2.5237   -0.6434   21.9063 H       1  UNL1        0.0000
      5 C           2.1318   -0.2594   19.8722 C.2     1  UNL1        0.0000
      6 H           1.1732    0.1940   20.0997 H       1  UNL1        0.0000
      7 C           2.4890   -0.3935   18.5266 C.2     1  UNL1        0.0000
      8 H           1.8085   -0.0530   17.7579 H       1  UNL1        0.0000
      9 C           3.6877   -0.9922   18.1587 C.2     1  UNL1        0.0000
     10 H           3.8898   -1.1161   17.0997 H       1  UNL1        0.0000
     11 C           4.5804   -1.5279   19.1018 C.3     1  UNL1        0.0000
     12 H           5.3889   -2.1322   18.6929 H       1  UNL1        0.0000
     13 C           4.2385   -2.7785   22.7502 C.ar    1  UNL1        0.0000
     14 C           2.9171   -3.2155   22.6729 C.ar    1  UNL1        0.0000
     15 H           2.4213   -3.2183   21.7145 H       1  UNL1        0.0000
     16 C           2.2554   -3.6464   23.8068 C.ar    1  UNL1        0.0000
     17 H           1.2313   -3.9816   23.7300 H       1  UNL1        0.0000
     18 C           2.8984   -3.6624   25.0336 C.ar    1  UNL1        0.0000
     19 H           2.3781   -3.9998   25.9171 H       1  UNL1        0.0000
     20 C           4.2168   -3.2464   25.1159 C.ar    1  UNL1        0.0000
     21 H           4.7289   -3.2557   26.0669 H       1  UNL1        0.0000
     22 C           4.8827   -2.8075   23.9885 C.ar    1  UNL1        0.0000
     23 H           5.9097   -2.4792   24.0628 H       1  UNL1        0.0000
     24 C           6.2278   -2.7669   21.4580 C.ar    1  UNL1        0.0000
     25 C           7.2416   -1.9283   20.9910 C.ar    1  UNL1        0.0000
     26 H           7.0050   -0.8841   20.7600 H       1  UNL1        0.0000
     27 C           8.5412   -2.3834   20.8631 C.ar    1  UNL1        0.0000
     28 H           9.3106   -1.7097   20.5146 H       1  UNL1        0.0000
     29 C           8.8594   -3.6907   21.1881 C.ar    1  UNL1        0.0000
     30 H           9.8737   -4.0452   21.0882 H       1  UNL1        0.0000
     31 C           7.8621   -4.5368   21.6484 C.ar    1  UNL1        0.0000
     32 H           8.0977   -5.5603   21.9004 H       1  UNL1        0.0000
     33 C           6.5658   -4.0852   21.7852 C.ar    1  UNL1        0.0000
     34 H           5.7944   -4.7498   22.1450 H       1  UNL1        0.0000
@<TRIPOS>BOND
     1    10     9    1
     2     8     7    1
     3     9     7    2
     4     9    11    1
     5     7     5    1
     6    12    11    1
     7    11     1    1
     8     5     6    1
     9     5     3    2
    10    28    27    1
    11     1     3    1
    12     1     2    1
    13    26    25    1
    14    27    25   ar
    15    27    29   ar
    16     3     4    1
    17    25    24   ar
    18    30    29    1
    19    29    31   ar
    20    24     2    1
    21    24    33   ar
    22     2    13    1
    23    31    33   ar
    24    31    32    1
    25    15    14    1
    26    33    34    1
    27    14    13   ar
    28    14    16   ar
    29    13    22   ar
    30    17    16    1
    31    16    18   ar
    32    22    23    1
    33    22    20   ar
    34    18    20   ar
    35    18    19    1
    36    20    21    1
