@<TRIPOS>MOLECULE
1,4
 43 43 0 0 0
SMALL
GASTEIGER

@<TRIPOS>ATOM
      1 C           5.8378    5.5480    3.4702 C.2     1  UNL1        0.0000
      2 O           6.9246    5.1326    3.6431 O.2     1  UNL1        0.0000
      3 N           5.5920    7.3733    5.4187 N.3     1  UNL1        0.0000
      4 B           4.9177    6.2991    4.7602 B       1  UNL1        0.0000
      5 SI          6.3683    6.9736    6.9638 Si      1  UNL1        0.0000
      6 C           7.9957    7.9522    7.1189 C.3     1  UNL1        0.0000
      7 H           8.6670    7.7204    6.2989 H       1  UNL1        0.0000
      8 H           8.4998    7.6818    8.0411 H       1  UNL1        0.0000
      9 H           7.8480    9.0249    7.1316 H       1  UNL1        0.0000
     10 C           6.8663    5.1343    7.0092 C.3     1  UNL1        0.0000
     11 H           6.0160    4.4890    7.1992 H       1  UNL1        0.0000
     12 H           7.5994    4.9532    7.7895 H       1  UNL1        0.0000
     13 H           7.3074    4.8263    6.0667 H       1  UNL1        0.0000
     14 C           5.1739    7.3475    8.4046 C.3     1  UNL1        0.0000
     15 H           4.9446    8.4044    8.4809 H       1  UNL1        0.0000
     16 H           5.6056    7.0354    9.3501 H       1  UNL1        0.0000
     17 H           4.2379    6.8133    8.2767 H       1  UNL1        0.0000
     18 SI          5.6200    9.0068    4.7613 Si      1  UNL1        0.0000
     19 C           4.1262    9.1915    3.5954 C.3     1  UNL1        0.0000
     20 H           4.4130    9.0900    2.5559 H       1  UNL1        0.0000
     21 H           3.6470   10.1587    3.7094 H       1  UNL1        0.0000
     22 H           3.3930    8.4188    3.8062 H       1  UNL1        0.0000
     23 C           7.2819    9.4143    3.9203 C.3     1  UNL1        0.0000
     24 H           8.0300    9.7301    4.6400 H       1  UNL1        0.0000
     25 H           7.1616   10.2187    3.2013 H       1  UNL1        0.0000
     26 H           7.6800    8.5574    3.3875 H       1  UNL1        0.0000
     27 C           5.2854   10.2529    6.1705 C.3     1  UNL1        0.0000
     28 H           4.3104   10.0871    6.6169 H       1  UNL1        0.0000
     29 H           5.2965   11.2646    5.7775 H       1  UNL1        0.0000
     30 H           6.0218   10.2050    6.9630 H       1  UNL1        0.0000
     31 C           4.0583    5.3862    5.5861 C.1     1  UNL1        0.0000
     32 C           3.3320    4.7265    6.3038 C.1     1  UNL1        0.0000
     33 C           2.4985    3.9411    7.1282 C.ar    1  UNL1        0.0000
     34 C           1.4564    4.5338    7.8462 C.ar    1  UNL1        0.0000
     35 H           1.2914    5.5986    7.7600 H       1  UNL1        0.0000
     36 C           0.6450    3.7610    8.6529 C.ar    1  UNL1        0.0000
     37 H          -0.1612    4.2242    9.2033 H       1  UNL1        0.0000
     38 C           0.8623    2.3961    8.7607 C.ar    1  UNL1        0.0000
     39 H           0.2263    1.7959    9.3942 H       1  UNL1        0.0000
     40 C           1.8976    1.8031    8.0546 C.ar    1  UNL1        0.0000
     41 H           2.0681    0.7396    8.1390 H       1  UNL1        0.0000
     42 C           2.7115    2.5646    7.2401 C.ar    1  UNL1        0.0000
     43 H           3.5192    2.1082    6.6868 H       1  UNL1        0.0000
@<TRIPOS>BOND
     1    20    19    1
     2    25    23    1
     3    26    23    1
     4     1     2    2
     5     1     4    1
     6    19    21    1
     7    19    22    1
     8    19    18    1
     9    23    24    1
    10    23    18    1
    11     4     3    1
    12     4    31    1
    13    18     3    1
    14    18    27    1
    15     3     5    1
    16    31    32    3
    17    29    27    1
    18    13    10    1
    19    27    28    1
    20    27    30    1
    21     7     6    1
    22    32    33    1
    23    43    42    1
    24     5    10    1
    25     5     6    1
    26     5    14    1
    27    10    11    1
    28    10    12    1
    29     6     9    1
    30     6     8    1
    31    33    42   ar
    32    33    34   ar
    33    42    40   ar
    34    35    34    1
    35    34    36   ar
    36    40    41    1
    37    40    38   ar
    38    17    14    1
    39    14    15    1
    40    14    16    1
    41    36    38   ar
    42    36    37    1
    43    38    39    1
