@<TRIPOS>MOLECULE
2,3
 23 24 0 0 0
SMALL
GASTEIGER

@<TRIPOS>ATOM
      1 N           1.0622   -3.8597   -1.6453 N.pl3   1  UNL1        0.0000
      2 B           0.8661   -3.1200   -2.8707 B       1  UNL1        0.0000
      3 C           0.0891   -4.0827   -3.7729 C.3     1  UNL1        0.0000
      4 H          -0.0116   -4.1212   -4.8594 H       1  UNL1        0.0000
      5 C          -0.0290   -5.2985   -3.0098 C.2     1  UNL1        0.0000
      6 H          -0.4414   -6.2297   -3.3649 H       1  UNL1        0.0000
      7 C           0.5362   -5.1226   -1.7827 C.2     1  UNL1        0.0000
      8 H           0.6123   -5.8362   -0.9789 H       1  UNL1        0.0000
      9 C           1.7841   -3.5147   -0.4465 C.3     1  UNL1        0.0000
     10 H           2.1927   -4.4139    0.0191 H       1  UNL1        0.0000
     11 H           1.1368   -3.0208    0.2878 H       1  UNL1        0.0000
     12 H           2.6111   -2.8463   -0.6871 H       1  UNL1        0.0000
     13 C           1.4937   -1.7189   -3.2154 C.ar    1  UNL1        0.0000
     14 C           1.7534   -0.7217   -2.2672 C.ar    1  UNL1        0.0000
     15 H           1.4880   -0.8840   -1.2319 H       1  UNL1        0.0000
     16 C           2.3285    0.4874   -2.6163 C.ar    1  UNL1        0.0000
     17 H           2.5111    1.2340   -1.8560 H       1  UNL1        0.0000
     18 C           2.6625    0.7471   -3.9344 C.ar    1  UNL1        0.0000
     19 H           3.1119    1.6906   -4.2095 H       1  UNL1        0.0000
     20 C           2.4177   -0.2193   -4.8970 C.ar    1  UNL1        0.0000
     21 H           2.6785   -0.0297   -5.9296 H       1  UNL1        0.0000
     22 C           1.8470   -1.4269   -4.5398 C.ar    1  UNL1        0.0000
     23 H           1.6838   -2.1793   -5.2999 H       1  UNL1        0.0000
@<TRIPOS>BOND
     1    21    20    1
     2    23    22    1
     3    20    22   ar
     4    20    18   ar
     5     4     3    1
     6    22    13   ar
     7    19    18    1
     8    18    16   ar
     9     3     5    1
    10     3     2    1
    11     6     5    1
    12    13     2    1
    13    13    14   ar
    14     5     7    2
    15     2     1    1
    16    16    14   ar
    17    16    17    1
    18    14    15    1
    19     7     1    1
    20     7     8    1
    21     1     9    1
    22    12     9    1
    23     9    10    1
    24     9    11    1
