@<TRIPOS>MOLECULE
2,3
 23 24 0 0 0
SMALL
GASTEIGER

@<TRIPOS>ATOM
      1 N          -4.1904   -1.3632   -1.0092 N.pl3   1  UNL1        0.0000
      2 B          -2.8948   -0.8113   -1.3281 B       1  UNL1        0.0000
      3 C          -1.9044   -1.7914   -0.6907 C.3     1  UNL1        0.0000
      4 H          -0.8753   -1.6350   -0.3672 H       1  UNL1        0.0000
      5 C          -2.7203   -2.7541    0.0040 C.2     1  UNL1        0.0000
      6 H          -2.3569   -3.5331    0.6580 H       1  UNL1        0.0000
      7 C          -4.0364   -2.4798   -0.2202 C.2     1  UNL1        0.0000
      8 H          -4.8997   -3.0219    0.1290 H       1  UNL1        0.0000
      9 C          -5.5181   -0.9128   -1.3416 C.3     1  UNL1        0.0000
     10 H          -5.9371   -0.2871   -0.5449 H       1  UNL1        0.0000
     11 H          -6.1868   -1.7660   -1.4836 H       1  UNL1        0.0000
     12 H          -5.4999   -0.3311   -2.2634 H       1  UNL1        0.0000
     13 C          -2.5910    0.5736   -2.0019 C.ar    1  UNL1        0.0000
     14 C          -3.4609    1.6691   -1.9572 C.ar    1  UNL1        0.0000
     15 H          -4.4178    1.5684   -1.4675 H       1  UNL1        0.0000
     16 C          -3.1207    2.8961   -2.4988 C.ar    1  UNL1        0.0000
     17 H          -3.8215    3.7185   -2.4491 H       1  UNL1        0.0000
     18 C          -1.8830    3.0820   -3.0923 C.ar    1  UNL1        0.0000
     19 H          -1.6148    4.0423   -3.5092 H       1  UNL1        0.0000
     20 C          -0.9899    2.0222   -3.1320 C.ar    1  UNL1        0.0000
     21 H          -0.0091    2.1523   -3.5697 H       1  UNL1        0.0000
     22 C          -1.3450    0.7963   -2.6046 C.ar    1  UNL1        0.0000
     23 H          -0.6213   -0.0134   -2.6441 H       1  UNL1        0.0000
@<TRIPOS>BOND
     1    21    20    1
     2    19    18    1
     3    20    18   ar
     4    20    22   ar
     5    18    16   ar
     6    23    22    1
     7    22    13   ar
     8    16    17    1
     9    16    14   ar
    10    12     9    1
    11    13    14   ar
    12    13     2    1
    13    14    15    1
    14    11     9    1
    15     9     1    1
    16     9    10    1
    17     2     1    1
    18     2     3    1
    19     1     7    1
    20     3     4    1
    21     3     5    1
    22     7     5    2
    23     7     8    1
    24     5     6    1
