@<TRIPOS>MOLECULE
1,29
 30 29 0 0 0
SMALL
GASTEIGER

@<TRIPOS>ATOM
      1 B           0.7944   10.2197    4.8410 B       1  UNL1        0.0000
      2 N           0.5878   10.6044    3.5521 N.3     1  UNL1        0.0000
      3 SI          0.2857   12.3481    3.3029 Si      1  UNL1        0.0000
      4 SI          0.7817    9.4051    2.2558 Si      1  UNL1        0.0000
      5 C           1.1319   13.2756    4.7260 C.3     1  UNL1        0.0000
      6 H           1.0205   14.3515    4.6368 H       1  UNL1        0.0000
      7 H           2.1953   13.0541    4.7544 H       1  UNL1        0.0000
      8 H           0.7189   12.9675    5.6831 H       1  UNL1        0.0000
      9 C          -1.6074   12.5702    3.3263 C.3     1  UNL1        0.0000
     10 H          -1.8778   13.6159    3.2224 H       1  UNL1        0.0000
     11 H          -2.0186   12.2126    4.2655 H       1  UNL1        0.0000
     12 H          -2.0929   12.0242    2.5238 H       1  UNL1        0.0000
     13 C           1.0413   12.8976    1.6436 C.3     1  UNL1        0.0000
     14 H           0.8415   13.9525    1.4859 H       1  UNL1        0.0000
     15 H           0.6328   12.3591    0.7958 H       1  UNL1        0.0000
     16 H           2.1183   12.7657    1.6362 H       1  UNL1        0.0000
     17 C           2.4351    9.6780    1.3514 C.3     1  UNL1        0.0000
     18 H           2.7452    8.7742    0.8353 H       1  UNL1        0.0000
     19 H           3.2154    9.9358    2.0619 H       1  UNL1        0.0000
     20 H           2.3803   10.4711    0.6136 H       1  UNL1        0.0000
     21 C           0.7957    7.7012    3.1041 C.3     1  UNL1        0.0000
     22 H           0.7866    6.8898    2.3828 H       1  UNL1        0.0000
     23 H          -0.0637    7.5772    3.7565 H       1  UNL1        0.0000
     24 H           1.6908    7.5938    3.7100 H       1  UNL1        0.0000
     25 C          -0.7358    9.5387    1.1123 C.3     1  UNL1        0.0000
     26 H          -0.6685    8.8094    0.3120 H       1  UNL1        0.0000
     27 H          -0.8182   10.5187    0.6559 H       1  UNL1        0.0000
     28 H          -1.6578    9.3493    1.6530 H       1  UNL1        0.0000
     29 C           2.5139    9.9324    5.3819 C.2     1  UNL1        0.0000
     30 O           3.4340   10.0795    4.6576 O.2     1  UNL1        0.0000
@<TRIPOS>BOND
     1    26    25    1
     2    20    17    1
     3    27    25    1
     4    15    13    1
     5    18    17    1
     6    25    28    1
     7    25     4    1
     8    17    19    1
     9    17     4    1
    10    14    13    1
    11    16    13    1
    12    13     3    1
    13     4    21    1
    14     4     2    1
    15    22    21    1
    16    12     9    1
    17    21    24    1
    18    21    23    1
    19    10     9    1
    20     3     9    1
    21     3     2    1
    22     3     5    1
    23     9    11    1
    24     2     1    1
    25     6     5    1
    26    30    29    2
    27     5     7    1
    28     5     8    1
    29     1    29    1
