@<TRIPOS>MOLECULE
1,2
 45 48 0 0 0
SMALL
GASTEIGER

@<TRIPOS>ATOM
      1 F           8.2605    3.1012    3.6078 F       1  UNL1        0.0000
      2 F           9.7806    2.7490    5.5632 F       1  UNL1        0.0000
      3 F          11.5750    0.6101    5.6846 F       1  UNL1        0.0000
      4 F          11.7842   -1.0327    3.4714 F       1  UNL1        0.0000
      5 F          10.3519   -0.5230    1.2885 F       1  UNL1        0.0000
      6 F           7.7682   -0.9543    2.2338 F       1  UNL1        0.0000
      7 F           6.0509   -2.7563    1.3319 F       1  UNL1        0.0000
      8 F           4.7752   -2.4042   -1.0693 F       1  UNL1        0.0000
      9 F           5.2815   -0.1388   -2.5242 F       1  UNL1        0.0000
     10 F           7.0240    1.6826   -1.6247 F       1  UNL1        0.0000
     11 F           9.3535    0.1150   -1.7262 F       1  UNL1        0.0000
     12 F          11.5562    0.5943   -3.1314 F       1  UNL1        0.0000
     13 F          13.3447    2.5000   -2.3277 F       1  UNL1        0.0000
     14 F          12.8394    3.9208   -0.0330 F       1  UNL1        0.0000
     15 F          10.6019    3.4779    1.3607 F       1  UNL1        0.0000
     16 F           8.7524    4.1926   -0.8353 F       1  UNL1        0.0000
     17 F           6.9456    6.1293   -0.8772 F       1  UNL1        0.0000
     18 F           4.7171    6.0107    0.7038 F       1  UNL1        0.0000
     19 F           4.3798    3.8455    2.3690 F       1  UNL1        0.0000
     20 F           6.1878    1.8893    2.4054 F       1  UNL1        0.0000
     21 B           8.5277    1.6185    0.8068 B       1  UNL1        0.0000
     22 C           9.2189    1.3020    2.2642 C.ar    1  UNL1        0.0000
     23 C           9.1291    2.0503    3.4221 C.ar    1  UNL1        0.0000
     24 C           9.9272    1.8451    4.5343 C.ar    1  UNL1        0.0000
     25 C          10.8314    0.8061    4.5956 C.ar    1  UNL1        0.0000
     26 C          10.9303   -0.0117    3.4704 C.ar    1  UNL1        0.0000
     27 C          10.1612    0.2651    2.3447 C.ar    1  UNL1        0.0000
     28 C           7.5204    0.4290    0.3156 C.ar    1  UNL1        0.0000
     29 C           7.2095   -0.7188    1.0314 C.ar    1  UNL1        0.0000
     30 C           6.3021   -1.6743    0.5835 C.ar    1  UNL1        0.0000
     31 C           5.6509   -1.4976   -0.6284 C.ar    1  UNL1        0.0000
     32 C           5.9147   -0.3491   -1.3660 C.ar    1  UNL1        0.0000
     33 C           6.8245    0.5820   -0.8829 C.ar    1  UNL1        0.0000
     34 C           9.8463    1.8146   -0.1461 C.ar    1  UNL1        0.0000
     35 C          10.1570    1.0930   -1.2919 C.ar    1  UNL1        0.0000
     36 C          11.3152    1.3174   -2.0342 C.ar    1  UNL1        0.0000
     37 C          12.2279    2.2815   -1.6295 C.ar    1  UNL1        0.0000
     38 C          11.9671    3.0039   -0.4714 C.ar    1  UNL1        0.0000
     39 C          10.8011    2.7538    0.2349 C.ar    1  UNL1        0.0000
     40 C           7.5707    2.9489    0.8103 C.ar    1  UNL1        0.0000
     41 C           7.7002    4.0575   -0.0203 C.ar    1  UNL1        0.0000
     42 C           6.7571    5.0835   -0.0670 C.ar    1  UNL1        0.0000
     43 C           5.6227    5.0279    0.7316 C.ar    1  UNL1        0.0000
     44 C           5.4549    3.9344    1.5716 C.ar    1  UNL1        0.0000
     45 C           6.4132    2.9321    1.5820 C.ar    1  UNL1        0.0000
@<TRIPOS>BOND
     1    12    36    1
     2     9    32    1
     3    13    37    1
     4    36    37   ar
     5    36    35   ar
     6    11    35    1
     7    37    38   ar
     8    10    33    1
     9    32    33   ar
    10    32    31   ar
    11    35    34   ar
    12     8    31    1
    13    33    28   ar
    14    17    42    1
    15    16    41    1
    16    31    30   ar
    17    38    14    1
    18    38    39   ar
    19    34    39   ar
    20    34    21    1
    21    42    41   ar
    22    42    43   ar
    23    41    40   ar
    24    39    15    1
    25    28    21    1
    26    28    29   ar
    27    30    29   ar
    28    30     7    1
    29    18    43    1
    30    43    44   ar
    31    21    40    1
    32    21    22    1
    33    40    45   ar
    34    29     6    1
    35     5    27    1
    36    44    45   ar
    37    44    19    1
    38    45    20    1
    39    22    27   ar
    40    22    23   ar
    41    27    26   ar
    42    23     1    1
    43    23    24   ar
    44    26     4    1
    45    26    25   ar
    46    24    25   ar
    47    24     2    1
    48    25     3    1
