@<TRIPOS>MOLECULE
5,6,7,8,10,15,16,18
 54 56 0 0 0
SMALL
GASTEIGER

@<TRIPOS>ATOM
      1 SI          1.3701    2.2551   10.5403 Si      1  UNL1        0.0000
      2 SI          3.7648    2.0652   12.6250 Si      1  UNL1        0.0000
      3 SI          5.0981    3.0329    6.3247 Si      1  UNL1        0.0000
      4 SI          7.4917    2.8603    8.4119 Si      1  UNL1        0.0000
      5 O           2.9239    2.2298   11.1793 O.3     1  UNL1        0.0000
      6 O           5.9388    2.8671    7.7703 O.3     1  UNL1        0.0000
      7 C           2.0038    2.0458    8.7917 C.3     1  UNL1        0.0000
      8 C           3.0179    2.9119    8.2905 C.3     1  UNL1        0.0000
      9 H           3.2191    3.9200    8.6537 H       1  UNL1        0.0000
     10 C           3.5220    2.3601    7.0774 C.3     1  UNL1        0.0000
     11 C           2.8400    1.1407    6.8679 C.2     1  UNL1        0.0000
     12 H           2.9905    0.4803    6.0271 H       1  UNL1        0.0000
     13 C           1.9240    0.9511    7.9022 C.2     1  UNL1        0.0000
     14 H           1.2435    0.1187    7.9997 H       1  UNL1        0.0000
     15 C           5.3877    1.7846   11.7358 C.3     1  UNL1        0.0000
     16 C           5.8204    2.6996   10.7331 C.3     1  UNL1        0.0000
     17 H           5.5194    3.7453   10.6646 H       1  UNL1        0.0000
     18 C           6.9049    2.1091   10.0226 C.3     1  UNL1        0.0000
     19 C           7.1003    0.8214   10.5701 C.2     1  UNL1        0.0000
     20 H           7.8551    0.1181   10.2519 H       1  UNL1        0.0000
     21 C           6.1848    0.6255   11.6037 C.2     1  UNL1        0.0000
     22 H           6.1092   -0.2555   12.2233 H       1  UNL1        0.0000
     23 C           0.2641    0.8857   11.2492 C.3     1  UNL1        0.0000
     24 H          -0.6775    0.8491   10.7126 H       1  UNL1        0.0000
     25 H           0.0383    1.0742   12.2940 H       1  UNL1        0.0000
     26 H           0.7274   -0.0931   11.1785 H       1  UNL1        0.0000
     27 C           0.6381    3.9740   10.9140 C.3     1  UNL1        0.0000
     28 H           1.2988    4.7814   10.6141 H       1  UNL1        0.0000
     29 H           0.4427    4.0865   11.9752 H       1  UNL1        0.0000
     30 H          -0.3015    4.1057   10.3907 H       1  UNL1        0.0000
     31 C           3.0958    0.6583   13.7086 C.3     1  UNL1        0.0000
     32 H           2.1139    0.9056   14.0996 H       1  UNL1        0.0000
     33 H           3.7528    0.4934   14.5555 H       1  UNL1        0.0000
     34 H           3.0130   -0.2762   13.1632 H       1  UNL1        0.0000
     35 C           3.6423    3.7334   13.5370 C.3     1  UNL1        0.0000
     36 H           3.9574    4.5688   12.9199 H       1  UNL1        0.0000
     37 H           4.2661    3.7250   14.4229 H       1  UNL1        0.0000
     38 H           2.6225    3.9249   13.8535 H       1  UNL1        0.0000
     39 C           5.8871    2.0577    4.9008 C.3     1  UNL1        0.0000
     40 H           6.0638    1.0195    5.1624 H       1  UNL1        0.0000
     41 H           6.8373    2.4964    4.6129 H       1  UNL1        0.0000
     42 H           5.2409    2.0773    4.0302 H       1  UNL1        0.0000
     43 C           5.0449    4.8932    5.9167 C.3     1  UNL1        0.0000
     44 H           6.0353    5.2620    5.6718 H       1  UNL1        0.0000
     45 H           4.6667    5.4892    6.7412 H       1  UNL1        0.0000
     46 H           4.4057    5.0727    5.0605 H       1  UNL1        0.0000
     47 C           8.7139    1.8571    7.3627 C.3     1  UNL1        0.0000
     48 H           8.3451    0.8599    7.1452 H       1  UNL1        0.0000
     49 H           9.6601    1.7571    7.8829 H       1  UNL1        0.0000
     50 H           8.9107    2.3544    6.4182 H       1  UNL1        0.0000
     51 C           8.0501    4.6770    8.5461 C.3     1  UNL1        0.0000
     52 H           8.2001    5.1072    7.5616 H       1  UNL1        0.0000
     53 H           8.9898    4.7440    9.0813 H       1  UNL1        0.0000
     54 H           7.3279    5.2962    9.0688 H       1  UNL1        0.0000
@<TRIPOS>BOND
     1    42    39    1
     2    41    39    1
     3    39    40    1
     4    39     3    1
     5    46    43    1
     6    44    43    1
     7    43     3    1
     8    43    45    1
     9    12    11    1
    10     3    10    1
    11     3     6    1
    12    50    47    1
    13    11    10    1
    14    11    13    2
    15    10     8    1
    16    48    47    1
    17    47    49    1
    18    47     4    1
    19    52    51    1
    20     6     4    1
    21    13    14    1
    22    13     7    1
    23     8     9    1
    24     8     7    1
    25     4    51    1
    26     4    18    1
    27    51    54    1
    28    51    53    1
    29     7     1    1
    30    18    19    1
    31    18    16    1
    32    20    19    1
    33    30    27    1
    34     1    27    1
    35     1     5    1
    36     1    23    1
    37    19    21    2
    38    28    27    1
    39    17    16    1
    40    24    23    1
    41    16    15    1
    42    27    29    1
    43    26    23    1
    44     5     2    1
    45    23    25    1
    46    21    15    1
    47    21    22    1
    48    15     2    1
    49     2    35    1
    50     2    31    1
    51    36    35    1
    52    34    31    1
    53    35    38    1
    54    35    37    1
    55    31    32    1
    56    31    33    1
