@<TRIPOS>MOLECULE
1,2,3,4
 43 46 0 0 0
SMALL
GASTEIGER

@<TRIPOS>ATOM
      1 S           1.7286    4.0118    1.9398 S.3     1  UNL1        0.0000
      2 C           3.3611    4.0928    2.6332 C.3     1  UNL1        0.0000
      3 C           4.2852    4.1323    1.6033 C.3     1  UNL1        0.0000
      4 C           3.7210    3.8713    0.3261 C.3     1  UNL1        0.0000
      5 C           2.3276    4.4280    0.2692 C.3     1  UNL1        0.0000
      6 SI          3.5604    4.3977    4.4820 Si      1  UNL1        0.0000
      7 O           1.9976    4.0679    4.8665 O.3     1  UNL1        0.0000
      8 O           4.7482    3.2913    4.7313 O.3     1  UNL1        0.0000
      9 O           4.0129    5.9832    4.5141 O.3     1  UNL1        0.0000
     10 C           1.4371    4.1641    6.1393 C.3     1  UNL1        0.0000
     11 C           2.5273    3.9423    7.1972 C.3     1  UNL1        0.0000
     12 C           5.1510    2.8090    5.9777 C.3     1  UNL1        0.0000
     13 C           4.9649    3.9073    7.0356 C.3     1  UNL1        0.0000
     14 C           4.4667    6.6224    5.6686 C.3     1  UNL1        0.0000
     15 C           3.7644    6.0332    6.8973 C.3     1  UNL1        0.0000
     16 N           3.7301    4.5979    6.7317 N.4     1  UNL1        0.0000
     17 P           2.2533    6.2536    0.0623 P.3     1  UNL1        0.0000
     18 O           2.6802    6.3391   -1.4868 O.3     1  UNL1        0.0000
     19 O           3.5374    6.8541    0.8312 O.3     1  UNL1        0.0000
     20 O           1.0083    6.9447    0.4094 O.2     1  UNL1        0.0000
     21 C           2.4622    7.5565   -2.1814 C.3     1  UNL1        0.0000
     22 C           3.3643    7.7660    1.9054 C.3     1  UNL1        0.0000
     23 H           5.3428    4.2908    1.7872 H       1  UNL1        0.0000
     24 H           4.3220    4.0148   -0.5691 H       1  UNL1        0.0000
     25 H           1.6671    3.9804   -0.4753 H       1  UNL1        0.0000
     26 H           0.6544    3.4063    6.2267 H       1  UNL1        0.0000
     27 H           0.9794    5.1550    6.2510 H       1  UNL1        0.0000
     28 H           2.7301    2.8727    7.2626 H       1  UNL1        0.0000
     29 H           2.1987    4.3060    8.1781 H       1  UNL1        0.0000
     30 H           6.1990    2.5079    5.9072 H       1  UNL1        0.0000
     31 H           4.5482    1.9262    6.2206 H       1  UNL1        0.0000
     32 H           4.9714    3.4811    8.0452 H       1  UNL1        0.0000
     33 H           5.7873    4.6188    6.9494 H       1  UNL1        0.0000
     34 H           4.2531    7.6909    5.5763 H       1  UNL1        0.0000
     35 H           5.5525    6.4871    5.7432 H       1  UNL1        0.0000
     36 H           4.2708    6.3443    7.8191 H       1  UNL1        0.0000
     37 H           2.7377    6.4008    6.9167 H       1  UNL1        0.0000
     38 H           2.3535    7.3063   -3.2362 H       1  UNL1        0.0000
     39 H           3.3115    8.2293   -2.0467 H       1  UNL1        0.0000
     40 H           1.5537    8.0418   -1.8173 H       1  UNL1        0.0000
     41 H           4.0165    8.6212    1.7240 H       1  UNL1        0.0000
     42 H           3.6412    7.2724    2.8371 H       1  UNL1        0.0000
     43 H           2.3248    8.0971    1.9520 H       1  UNL1        0.0000
@<TRIPOS>BOND
     1    38    21    1
     2    21    39    1
     3    21    40    1
     4    21    18    1
     5    18    17    1
     6    24     4    1
     7    25     5    1
     8    17     5    1
     9    17    20    2
    10    17    19    1
    11     5     4    1
    12     5     1    1
    13     4     3    1
    14    19    22    1
    15     3    23    1
    16     3     2    1
    17    41    22    1
    18    22    43    1
    19    22    42    1
    20     1     2    1
    21     2     6    1
    22     6     9    1
    23     6     8    1
    24     6     7    1
    25     6    16    1
    26     9    14    1
    27     8    12    1
    28     7    10    1
    29    34    14    1
    30    14    35    1
    31    14    15    1
    32    30    12    1
    33    12    31    1
    34    12    13    1
    35    10    26    1
    36    10    27    1
    37    10    11    1
    38    16    15    1
    39    16    13    1
    40    16    11    1
    41    15    37    1
    42    15    36    1
    43    33    13    1
    44    13    32    1
    45    11    28    1
    46    11    29    1
