@<TRIPOS>MOLECULE
1,4
 60 62 0 0 0
SMALL
GASTEIGER

@<TRIPOS>ATOM
      1 P           1.2674   -4.5445   -3.6242 P.3     1  UNL1        0.0000
      2 SI          4.1418   -1.1637   -4.3792 Si      1  UNL1        0.0000
      3 SI          4.4269   -6.6179   -1.7189 Si      1  UNL1        0.0000
      4 O          -0.8979   -5.8369   -4.7344 O.3     1  UNL1        0.0000
      5 O           2.8802   -2.0119   -3.7222 O.3     1  UNL1        0.0000
      6 O           3.5893   -5.6104   -2.7488 O.3     1  UNL1        0.0000
      7 C           0.0736   -3.7015   -4.6931 C.ar    1  UNL1        0.0000
      8 C          -0.9038   -4.6086   -5.1753 C.ar    1  UNL1        0.0000
      9 C          -1.8552   -4.1417   -6.0922 C.ar    1  UNL1        0.0000
     10 C          -1.8457   -2.8189   -6.4805 C.ar    1  UNL1        0.0000
     11 C          -0.8995   -1.9323   -5.9831 C.ar    1  UNL1        0.0000
     12 C           0.0680   -2.3765   -5.0983 C.ar    1  UNL1        0.0000
     13 C           1.7704   -3.4753   -2.2481 C.ar    1  UNL1        0.0000
     14 C           2.5594   -2.3412   -2.4582 C.ar    1  UNL1        0.0000
     15 C           2.9636   -1.5902   -1.3610 C.ar    1  UNL1        0.0000
     16 C           2.5896   -1.9578   -0.0815 C.ar    1  UNL1        0.0000
     17 C           1.8225   -3.0917    0.1272 C.ar    1  UNL1        0.0000
     18 C           1.4262   -3.8509   -0.9568 C.ar    1  UNL1        0.0000
     19 C           4.2125    0.6483   -3.7641 C.3     1  UNL1        0.0000
     20 C           3.7091   -1.1737   -6.2242 C.3     1  UNL1        0.0000
     21 C           5.7648   -2.0712   -3.9746 C.3     1  UNL1        0.0000
     22 C           2.6942   -4.7646   -4.7011 C.ar    1  UNL1        0.0000
     23 C           3.7733   -5.3761   -4.0539 C.ar    1  UNL1        0.0000
     24 C           4.9096   -5.6918   -4.7820 C.ar    1  UNL1        0.0000
     25 C           4.9442   -5.4272   -6.1412 C.ar    1  UNL1        0.0000
     26 C           3.8593   -4.8548   -6.7847 C.ar    1  UNL1        0.0000
     27 C           2.7232   -4.5263   -6.0652 C.ar    1  UNL1        0.0000
     28 C           3.4416   -6.4716   -0.1098 C.3     1  UNL1        0.0000
     29 C           6.1898   -5.9139   -1.4571 C.3     1  UNL1        0.0000
     30 C           4.4598   -8.3860   -2.4174 C.3     1  UNL1        0.0000
     31 H          -2.5906   -4.8338   -6.4725 H       1  UNL1        0.0000
     32 H          -2.5896   -2.4698   -7.1818 H       1  UNL1        0.0000
     33 H          -0.9115   -0.8986   -6.2942 H       1  UNL1        0.0000
     34 H           0.8212   -1.7024   -4.7224 H       1  UNL1        0.0000
     35 H           3.5755   -0.7182   -1.5238 H       1  UNL1        0.0000
     36 H           2.9129   -1.3589    0.7571 H       1  UNL1        0.0000
     37 H           1.5439   -3.3871    1.1267 H       1  UNL1        0.0000
     38 H           0.8631   -4.7637   -0.8172 H       1  UNL1        0.0000
     39 H           4.8099    0.7632   -2.8634 H       1  UNL1        0.0000
     40 H           3.2199    1.0392   -3.5542 H       1  UNL1        0.0000
     41 H           4.6571    1.2888   -4.5196 H       1  UNL1        0.0000
     42 H           2.7309   -0.7430   -6.4147 H       1  UNL1        0.0000
     43 H           3.7074   -2.1826   -6.6210 H       1  UNL1        0.0000
     44 H           4.4369   -0.5976   -6.7856 H       1  UNL1        0.0000
     45 H           5.9296   -2.1315   -2.9016 H       1  UNL1        0.0000
     46 H           6.6263   -1.5782   -4.4125 H       1  UNL1        0.0000
     47 H           5.7340   -3.0883   -4.3564 H       1  UNL1        0.0000
     48 H           5.7454   -6.1635   -4.2919 H       1  UNL1        0.0000
     49 H           5.8263   -5.6875   -6.7076 H       1  UNL1        0.0000
     50 H           3.8942   -4.6780   -7.8493 H       1  UNL1        0.0000
     51 H           1.8626   -4.0943   -6.5561 H       1  UNL1        0.0000
     52 H           2.4066   -6.7419   -0.2900 H       1  UNL1        0.0000
     53 H           3.4594   -5.4636    0.2927 H       1  UNL1        0.0000
     54 H           3.8381   -7.1423    0.6448 H       1  UNL1        0.0000
     55 H           6.8917   -6.2311   -2.2233 H       1  UNL1        0.0000
     56 H           6.5916   -6.2418   -0.5039 H       1  UNL1        0.0000
     57 H           6.1799   -4.8267   -1.4511 H       1  UNL1        0.0000
     58 H           5.1575   -8.5009   -3.2431 H       1  UNL1        0.0000
     59 H           3.4715   -8.6380   -2.7947 H       1  UNL1        0.0000
     60 H           4.7242   -9.1168   -1.6597 H       1  UNL1        0.0000
@<TRIPOS>BOND
     1    50    26    1
     2    32    10    1
     3    44    20    1
     4    26    25   ar
     5    26    27   ar
     6    49    25    1
     7    43    20    1
     8    51    27    1
     9    10     9   ar
    10    10    11   ar
    11    31     9    1
    12    42    20    1
    13    33    11    1
    14    20     2    1
    15    25    24   ar
    16     9     8   ar
    17    27    22   ar
    18    11    12   ar
    19     8     4    1
    20     8     7   ar
    21    12    34    1
    22    12     7   ar
    23    24    48    1
    24    24    23   ar
    25    22    23   ar
    26    22     1    1
    27     7     1    1
    28    41    19    1
    29    46    21    1
    30     2    21    1
    31     2    19    1
    32     2     5    1
    33    47    21    1
    34    23     6    1
    35    21    45    1
    36    19    40    1
    37    19    39    1
    38     5    14    1
    39     1    13    1
    40    58    30    1
    41    59    30    1
    42     6     3    1
    43    14    13   ar
    44    14    15   ar
    45    30     3    1
    46    30    60    1
    47    13    18   ar
    48    55    29    1
    49     3    29    1
    50     3    28    1
    51    35    15    1
    52    29    57    1
    53    29    56    1
    54    15    16   ar
    55    18    38    1
    56    18    17   ar
    57    52    28    1
    58    28    53    1
    59    28    54    1
    60    16    17   ar
    61    16    36    1
    62    17    37    1
