@<TRIPOS>MOLECULE
1,3
 40 39 0 0 0
SMALL
GASTEIGER

@<TRIPOS>ATOM
      1 P          10.4979    2.6098   12.0405 P.3     1  UNL1        0.0000
      2 SI          8.8313    4.9525   12.9502 Si      1  UNL1        0.0000
      3 O           8.4739    4.6249   11.4485 O.3     1  UNL1        0.0000
      4 C           9.6948    6.6497   13.1699 C.3     1  UNL1        0.0000
      5 H           9.0496    7.4449   12.8125 H       1  UNL1        0.0000
      6 H           9.9107    6.8494   14.2140 H       1  UNL1        0.0000
      7 H          10.6275    6.7114   12.6159 H       1  UNL1        0.0000
      8 C           7.3013    4.9106   14.0883 C.3     1  UNL1        0.0000
      9 H           6.6665    5.7604   13.8669 H       1  UNL1        0.0000
     10 H           6.7046    4.0142   13.9628 H       1  UNL1        0.0000
     11 H           7.5925    4.9822   15.1302 H       1  UNL1        0.0000
     12 C          10.1421    3.6265   13.5150 C.3     1  UNL1        0.0000
     13 H           9.8242    3.0000   14.3462 H       1  UNL1        0.0000
     14 H          11.0565    4.1358   13.8124 H       1  UNL1        0.0000
     15 C           9.5250    1.0164   12.2959 C.3     1  UNL1        0.0000
     16 C           9.4672    0.3169   10.9346 C.3     1  UNL1        0.0000
     17 H           8.7598   -0.5120   10.9623 H       1  UNL1        0.0000
     18 H           9.1361    1.0352   10.1650 H       1  UNL1        0.0000
     19 H          10.4363   -0.0701   10.6338 H       1  UNL1        0.0000
     20 C          10.0536    0.0839   13.3795 C.3     1  UNL1        0.0000
     21 H           9.3437   -0.7257   13.5488 H       1  UNL1        0.0000
     22 H          11.0031   -0.3590   13.0879 H       1  UNL1        0.0000
     23 H          10.1900    0.6152   14.3201 H       1  UNL1        0.0000
     24 C           8.1028    1.4777   12.6309 C.3     1  UNL1        0.0000
     25 H           7.4033    0.6478   12.5323 H       1  UNL1        0.0000
     26 H           8.0310    1.8614   13.6451 H       1  UNL1        0.0000
     27 H           7.8006    2.2719   11.9380 H       1  UNL1        0.0000
     28 C          12.3663    2.3698   12.0612 C.3     1  UNL1        0.0000
     29 C          12.9767    2.0697   13.4273 C.3     1  UNL1        0.0000
     30 H          14.0630    2.0509   13.3399 H       1  UNL1        0.0000
     31 H          12.7144    2.8260   14.1632 H       1  UNL1        0.0000
     32 H          12.6531    1.1020   13.8007 H       1  UNL1        0.0000
     33 C          12.8543    3.7275   11.5381 C.3     1  UNL1        0.0000
     34 H          13.9333    3.7214   11.3897 H       1  UNL1        0.0000
     35 H          12.3721    3.9379   10.5731 H       1  UNL1        0.0000
     36 H          12.6090    4.5329   12.2306 H       1  UNL1        0.0000
     37 C          12.7635    1.2946   11.0526 C.3     1  UNL1        0.0000
     38 H          13.8374    1.3359   10.8705 H       1  UNL1        0.0000
     39 H          12.5270    0.2989   11.4215 H       1  UNL1        0.0000
     40 H          12.2481    1.4637   10.1064 H       1  UNL1        0.0000
@<TRIPOS>BOND
     1    40    37    1
     2    18    16    1
     3    35    33    1
     4    19    16    1
     5    38    37    1
     6    16    17    1
     7    16    15    1
     8    37    39    1
     9    37    28    1
    10    34    33    1
    11     3     2    1
    12    33    28    1
    13    33    36    1
    14    27    24    1
    15     1    28    1
    16     1    15    1
    17     1    12    1
    18    28    29    1
    19    15    24    1
    20    15    20    1
    21    25    24    1
    22     7     4    1
    23    24    26    1
    24     5     4    1
    25     2     4    1
    26     2    12    1
    27     2     8    1
    28    22    20    1
    29     4     6    1
    30    30    29    1
    31    20    21    1
    32    20    23    1
    33    29    32    1
    34    29    31    1
    35    12    14    1
    36    12    13    1
    37     9     8    1
    38    10     8    1
    39     8    11    1
