@<TRIPOS>MOLECULE
1,3
 40 39 0 0 0
SMALL
GASTEIGER

@<TRIPOS>ATOM
      1 P           8.8135    4.4474    8.1349 P.3     1  UNL1        0.0000
      2 SI         10.4794    2.1055    7.2247 Si      1  UNL1        0.0000
      3 O          10.8364    2.4332    8.7265 O.3     1  UNL1        0.0000
      4 C           9.6161    0.4082    7.0049 C.3     1  UNL1        0.0000
      5 H          10.2613   -0.3870    7.3622 H       1  UNL1        0.0000
      6 H           9.4003    0.2084    5.9607 H       1  UNL1        0.0000
      7 H           8.6833    0.3464    7.5587 H       1  UNL1        0.0000
      8 C          12.0094    2.1474    6.0866 C.3     1  UNL1        0.0000
      9 H          12.6443    1.2976    6.3079 H       1  UNL1        0.0000
     10 H          12.6061    3.0438    6.2121 H       1  UNL1        0.0000
     11 H          11.7184    2.0758    5.0446 H       1  UNL1        0.0000
     12 C           9.1686    3.4314    6.6597 C.3     1  UNL1        0.0000
     13 H           9.4864    4.0580    5.8286 H       1  UNL1        0.0000
     14 H           8.2542    2.9221    6.3624 H       1  UNL1        0.0000
     15 C           9.7857    6.0413    7.8789 C.3     1  UNL1        0.0000
     16 C           9.8435    6.7410    9.2401 C.3     1  UNL1        0.0000
     17 H          10.5509    7.5699    9.2123 H       1  UNL1        0.0000
     18 H          10.1747    6.0228   10.0098 H       1  UNL1        0.0000
     19 H           8.8745    7.1280    9.5410 H       1  UNL1        0.0000
     20 C           9.2571    6.9739    6.7953 C.3     1  UNL1        0.0000
     21 H           9.9669    7.7835    6.6259 H       1  UNL1        0.0000
     22 H           8.3076    7.4168    7.0869 H       1  UNL1        0.0000
     23 H           9.1208    6.4426    5.8547 H       1  UNL1        0.0000
     24 C          11.2079    5.5801    7.5439 C.3     1  UNL1        0.0000
     25 H          11.9073    6.4100    7.6425 H       1  UNL1        0.0000
     26 H          11.2798    5.1963    6.5297 H       1  UNL1        0.0000
     27 H          11.5101    4.7860    8.2369 H       1  UNL1        0.0000
     28 C           6.9450    4.6880    8.1136 C.3     1  UNL1        0.0000
     29 C           6.3342    4.9881    6.7477 C.3     1  UNL1        0.0000
     30 H           5.2478    5.0071    6.8350 H       1  UNL1        0.0000
     31 H           6.5964    4.2318    6.0117 H       1  UNL1        0.0000
     32 H           6.6578    5.9558    6.3742 H       1  UNL1        0.0000
     33 C           6.4565    3.3304    8.6367 C.3     1  UNL1        0.0000
     34 H           5.3775    3.3367    8.7850 H       1  UNL1        0.0000
     35 H           6.9385    3.1200    9.6017 H       1  UNL1        0.0000
     36 H           6.7018    2.5250    7.9442 H       1  UNL1        0.0000
     37 C           6.5474    5.7632    9.1221 C.3     1  UNL1        0.0000
     38 H           5.4735    5.7219    9.3042 H       1  UNL1        0.0000
     39 H           6.7839    6.7589    8.7533 H       1  UNL1        0.0000
     40 H           7.0627    5.5941   10.0684 H       1  UNL1        0.0000
@<TRIPOS>BOND
     1    11     8    1
     2    13    12    1
     3    23    20    1
     4     6     4    1
     5    31    29    1
     6     8    10    1
     7     8     9    1
     8     8     2    1
     9    14    12    1
    10    32    29    1
    11    26    24    1
    12    21    20    1
    13    12     2    1
    14    12     1    1
    15    29    30    1
    16    29    28    1
    17    20    22    1
    18    20    15    1
    19     4     2    1
    20     4     5    1
    21     4     7    1
    22     2     3    1
    23    24    25    1
    24    24    15    1
    25    24    27    1
    26    15     1    1
    27    15    16    1
    28    36    33    1
    29    28     1    1
    30    28    33    1
    31    28    37    1
    32    33    34    1
    33    33    35    1
    34    39    37    1
    35    37    38    1
    36    37    40    1
    37    17    16    1
    38    16    19    1
    39    16    18    1
