@<TRIPOS>MOLECULE
1,2
 46 48 0 0 0
SMALL
GASTEIGER

@<TRIPOS>ATOM
      1 P           2.1544    8.6776   12.9731 P.3     1  UNL1        0.0000
      2 O           2.1745    6.3018   11.3014 O.3     1  UNL1        0.0000
      3 C           0.4291   10.4209   11.6611 C.ar    1  UNL1        0.0000
      4 H           0.2496    9.5705   11.0177 H       1  UNL1        0.0000
      5 C           2.3240    8.6705   14.8025 C.ar    1  UNL1        0.0000
      6 C           0.7307    7.5741   12.6791 C.ar    1  UNL1        0.0000
      7 C          -0.0593    5.5745   11.5347 C.ar    1  UNL1        0.0000
      8 C           0.9816    6.4767   11.8297 C.ar    1  UNL1        0.0000
      9 C           0.8640   12.5878   13.3169 C.ar    1  UNL1        0.0000
     10 H           1.0362   13.4322   13.9682 H       1  UNL1        0.0000
     11 C           1.5032   11.3868   13.5722 C.ar    1  UNL1        0.0000
     12 H           2.1625   11.3074   14.4234 H       1  UNL1        0.0000
     13 C          -0.5464    7.7886   13.1873 C.ar    1  UNL1        0.0000
     14 H          -0.7364    8.6607   13.7991 H       1  UNL1        0.0000
     15 C           1.2866   10.2860   12.7520 C.ar    1  UNL1        0.0000
     16 C           1.5038    7.9407   15.6551 C.ar    1  UNL1        0.0000
     17 H           0.7026    7.3376   15.2534 H       1  UNL1        0.0000
     18 C           3.3737    9.4128   15.3436 C.ar    1  UNL1        0.0000
     19 H           4.0534    9.9354   14.6844 H       1  UNL1        0.0000
     20 C           3.5768    9.4471   16.7114 C.ar    1  UNL1        0.0000
     21 H           4.3926   10.0258   17.1184 H       1  UNL1        0.0000
     22 C          -0.2075   11.6206   11.4077 C.ar    1  UNL1        0.0000
     23 H          -0.8748   11.7063   10.5625 H       1  UNL1        0.0000
     24 C           0.0090   12.7104   12.2356 C.ar    1  UNL1        0.0000
     25 H          -0.4876   13.6487   12.0388 H       1  UNL1        0.0000
     26 C           1.7142    7.9733   17.0230 C.ar    1  UNL1        0.0000
     27 H           1.0687    7.4039   17.6769 H       1  UNL1        0.0000
     28 SI          0.2942    4.1586   10.3217 Si      1  UNL1        0.0000
     29 C          -1.5635    6.8979   12.9019 C.ar    1  UNL1        0.0000
     30 H          -2.5527    7.0584   13.3042 H       1  UNL1        0.0000
     31 C          -1.3085    5.8033   12.0880 C.ar    1  UNL1        0.0000
     32 H          -2.1082    5.1120   11.8690 H       1  UNL1        0.0000
     33 C           2.7443    8.7301   17.5553 C.ar    1  UNL1        0.0000
     34 H           2.9038    8.7532   18.6231 H       1  UNL1        0.0000
     35 C          -1.0030    2.7926   10.6455 C.3     1  UNL1        0.0000
     36 H          -0.7917    1.9237   10.0319 H       1  UNL1        0.0000
     37 H          -2.0061    3.1231   10.3982 H       1  UNL1        0.0000
     38 H          -1.0078    2.4680   11.6814 H       1  UNL1        0.0000
     39 C           2.0012    3.3194   10.4615 C.3     1  UNL1        0.0000
     40 H           2.8095    4.0307   10.6175 H       1  UNL1        0.0000
     41 H           2.2221    2.7672    9.5518 H       1  UNL1        0.0000
     42 H           2.0211    2.6040   11.2802 H       1  UNL1        0.0000
     43 C          -0.0222    4.8311    8.5544 C.3     1  UNL1        0.0000
     44 H           0.4684    5.7832    8.3790 H       1  UNL1        0.0000
     45 H          -1.0856    4.9829    8.3903 H       1  UNL1        0.0000
     46 H           0.3277    4.1335    7.7990 H       1  UNL1        0.0000
@<TRIPOS>BOND
     1    46    43    1
     2    44    43    1
     3    45    43    1
     4    43    28    1
     5    41    39    1
     6    36    35    1
     7    28    39    1
     8    28    35    1
     9    28     7    1
    10    37    35    1
    11    39    40    1
    12    39    42    1
    13    23    22    1
    14    35    38    1
    15     4     3    1
    16     2     8    1
    17    22     3   ar
    18    22    24   ar
    19     7     8   ar
    20     7    31   ar
    21     3    15   ar
    22     8     6   ar
    23    32    31    1
    24    25    24    1
    25    31    29   ar
    26    24     9   ar
    27     6     1    1
    28     6    13   ar
    29    15     1    1
    30    15    11   ar
    31    29    13   ar
    32    29    30    1
    33     1     5    1
    34    13    14    1
    35     9    11   ar
    36     9    10    1
    37    11    12    1
    38    19    18    1
    39     5    18   ar
    40     5    16   ar
    41    17    16    1
    42    18    20   ar
    43    16    26   ar
    44    20    21    1
    45    20    33   ar
    46    26    33   ar
    47    26    27    1
    48    33    34    1
