@<TRIPOS>MOLECULE
5,6,7,8,9,18
 72 74 0 0 0
SMALL
GASTEIGER

@<TRIPOS>ATOM
      1 SI         10.8675    5.3861   10.5817 Si      1  UNL1        0.0000
      2 O          11.9610    5.5952   11.7985 O.2     1  UNL1        0.0000
      3 O          15.9832    4.3031    8.9614 O.2     1  UNL1        0.0000
      4 O          16.0452    8.9840   13.3649 O.2     1  UNL1        0.0000
      5 C          12.9269    6.5033   12.0687 C.2     1  UNL1        0.0000
      6 C          12.6686    7.5368   13.0056 C.3     1  UNL1        0.0000
      7 C          13.7218    8.3636   13.4338 C.2     1  UNL1        0.0000
      8 C          15.0138    8.1987   12.8657 C.2     1  UNL1        0.0000
      9 C          15.2517    7.2570   11.8563 C.3     1  UNL1        0.0000
     10 C          16.6276    6.9990   11.2712 C.3     1  UNL1        0.0000
     11 H          17.1033    6.2127   11.8804 H       1  UNL1        0.0000
     12 C          16.4886    6.4550    9.8416 C.3     1  UNL1        0.0000
     13 H          16.0738    7.2356    9.1965 H       1  UNL1        0.0000
     14 H          17.4652    6.1731    9.4469 H       1  UNL1        0.0000
     15 C          15.5765    5.2670    9.8183 C.2     1  UNL1        0.0000
     16 C          14.4796    5.2585   10.5879 C.2     1  UNL1        0.0000
     17 H          13.7650    4.4541   10.5815 H       1  UNL1        0.0000
     18 C          14.1972    6.3753   11.4710 C.2     1  UNL1        0.0000
     19 C          15.1640    3.1703    8.7922 C.3     1  UNL1        0.0000
     20 H          15.0372    2.6242    9.7318 H       1  UNL1        0.0000
     21 H          15.6746    2.5371    8.0691 H       1  UNL1        0.0000
     22 H          14.1813    3.4499    8.4016 H       1  UNL1        0.0000
     23 C          16.8323    8.3453   14.3498 C.3     1  UNL1        0.0000
     24 H          16.2368    8.0817   15.2325 H       1  UNL1        0.0000
     25 H          17.6011    9.0631   14.6277 H       1  UNL1        0.0000
     26 H          17.3086    7.4389   13.9661 H       1  UNL1        0.0000
     27 C          13.5265    9.4002   14.5130 C.3     1  UNL1        0.0000
     28 H          14.4848    9.6095   14.9905 H       1  UNL1        0.0000
     29 H          12.8470    9.0208   15.2792 H       1  UNL1        0.0000
     30 C          12.9892   10.7186   13.9510 C.3     1  UNL1        0.0000
     31 H          13.7240   11.1601   13.2834 H       1  UNL1        0.0000
     32 H          12.7940   11.4167   14.7621 H       1  UNL1        0.0000
     33 H          12.0695   10.5649   13.3903 H       1  UNL1        0.0000
     34 C          11.3119    7.5671   13.6605 C.3     1  UNL1        0.0000
     35 H          10.5555    7.3348   12.9127 H       1  UNL1        0.0000
     36 H          11.0950    8.5576   14.0577 H       1  UNL1        0.0000
     37 C          11.2338    6.5263   14.7811 C.3     1  UNL1        0.0000
     38 H          11.4039    5.5311   14.3778 H       1  UNL1        0.0000
     39 H          10.2516    6.5466   15.2469 H       1  UNL1        0.0000
     40 H          11.9834    6.7199   15.5467 H       1  UNL1        0.0000
     41 C           9.3226    6.4849   10.7900 C.3     1  UNL1        0.0000
     42 H           8.8328    6.3502   11.7507 H       1  UNL1        0.0000
     43 H           8.5914    6.2483   10.0237 H       1  UNL1        0.0000
     44 H           9.5632    7.5379   10.6791 H       1  UNL1        0.0000
     45 C          11.6158    5.7739    8.8762 C.3     1  UNL1        0.0000
     46 H          12.1313    6.7319    8.9124 H       1  UNL1        0.0000
     47 H          10.8433    5.8508    8.1188 H       1  UNL1        0.0000
     48 H          12.3309    5.0316    8.5358 H       1  UNL1        0.0000
     49 C          10.3866    3.5344   10.8248 C.3     1  UNL1        0.0000
     50 C          11.5823    2.5968   10.6376 C.3     1  UNL1        0.0000
     51 H          12.3564    2.8108   11.3715 H       1  UNL1        0.0000
     52 H          12.0023    2.6955    9.6387 H       1  UNL1        0.0000
     53 H          11.2736    1.5599   10.7700 H       1  UNL1        0.0000
     54 C           9.3195    3.1642    9.7948 C.3     1  UNL1        0.0000
     55 H           9.0327    2.1185    9.9015 H       1  UNL1        0.0000
     56 H           9.6893    3.3145    8.7836 H       1  UNL1        0.0000
     57 H           8.4296    3.7734    9.9257 H       1  UNL1        0.0000
     58 C           9.8151    3.3037   12.2263 C.3     1  UNL1        0.0000
     59 H           8.9288    3.9114   12.3889 H       1  UNL1        0.0000
     60 H          10.5508    3.5579   12.9855 H       1  UNL1        0.0000
     61 H           9.5378    2.2579   12.3563 H       1  UNL1        0.0000
     62 C          17.5418    8.2010   11.2329 C.ar    1  UNL1        0.0000
     63 C          17.1319    9.3890   10.6403 C.ar    1  UNL1        0.0000
     64 H          16.1326    9.4729   10.2360 H       1  UNL1        0.0000
     65 C          17.9861   10.4741   10.5860 C.ar    1  UNL1        0.0000
     66 H          17.6460   11.3945   10.1363 H       1  UNL1        0.0000
     67 C          19.2672   10.3824   11.1045 C.ar    1  UNL1        0.0000
     68 H          19.9331   11.2316   11.0635 H       1  UNL1        0.0000
     69 C          19.6919    9.1947   11.6723 C.ar    1  UNL1        0.0000
     70 H          20.6926    9.1094   12.0709 H       1  UNL1        0.0000
     71 C          18.8338    8.1103   11.7330 C.ar    1  UNL1        0.0000
     72 H          19.1771    7.1843   12.1762 H       1  UNL1        0.0000
@<TRIPOS>BOND
     1    21    19    1
     2    47    45    1
     3    22    19    1
     4    48    45    1
     5    56    54    1
     6    19     3    1
     7    19    20    1
     8    45    46    1
     9    45     1    1
    10     3    15    1
    11    13    12    1
    12    14    12    1
    13    52    50    1
    14    54    55    1
    15    54    57    1
    16    54    49    1
    17    15    12    1
    18    15    16    2
    19    12    10    1
    20    43    41    1
    21    66    65    1
    22    64    63    1
    23    17    16    1
    24     1    41    1
    25     1    49    1
    26     1     2    1
    27    65    63   ar
    28    65    67   ar
    29    16    18    1
    30    50    53    1
    31    50    49    1
    32    50    51    1
    33    63    62   ar
    34    44    41    1
    35    41    42    1
    36    49    58    1
    37    68    67    1
    38    67    69   ar
    39    62    10    1
    40    62    71   ar
    41    10     9    1
    42    10    11    1
    43    18     9    1
    44    18     5    2
    45    69    71   ar
    46    69    70    1
    47    71    72    1
    48     2     5    1
    49     9     8    1
    50     5     6    1
    51    58    61    1
    52    58    59    1
    53    58    60    1
    54     8     4    1
    55     8     7    2
    56    35    34    1
    57     6     7    1
    58     6    34    1
    59    31    30    1
    60     4    23    1
    61    33    30    1
    62     7    27    1
    63    34    36    1
    64    34    37    1
    65    30    27    1
    66    30    32    1
    67    26    23    1
    68    23    25    1
    69    23    24    1
    70    38    37    1
    71    27    28    1
    72    27    29    1
    73    37    39    1
    74    37    40    1
