@<TRIPOS>MOLECULE
4,6,7,9,11
 33 33 0 0 0
SMALL
GASTEIGER

@<TRIPOS>ATOM
      1 SI         -1.5070    3.1853    8.2162 Si      1  UNL1        0.0000
      2 SI          3.8114    1.8163    6.3710 Si      1  UNL1        0.0000
      3 C           0.3036    2.6254    8.3827 C.3     1  UNL1        0.0000
      4 C           1.0337    2.1879    7.2556 C.2     1  UNL1        0.0000
      5 H           0.6163    1.6267    6.4280 H       1  UNL1        0.0000
      6 C           2.4137    2.4712    7.4336 C.2     1  UNL1        0.0000
      7 C           2.5302    3.0999    8.7055 C.2     1  UNL1        0.0000
      8 H           3.4695    3.3104    9.2058 H       1  UNL1        0.0000
      9 C           1.2509    3.2165    9.2692 C.2     1  UNL1        0.0000
     10 H           1.0326    3.5592   10.2740 H       1  UNL1        0.0000
     11 C          -1.1315    4.9205    7.5710 C.3     1  UNL1        0.0000
     12 H          -1.6849    5.1690    6.6545 H       1  UNL1        0.0000
     13 H          -1.3439    5.7027    8.3115 H       1  UNL1        0.0000
     14 C          -2.4718    2.9688    9.8584 C.3     1  UNL1        0.0000
     15 H          -1.9746    3.4626   10.6867 H       1  UNL1        0.0000
     16 H          -3.4669    3.3921    9.7734 H       1  UNL1        0.0000
     17 H          -2.5795    1.9211   10.1189 H       1  UNL1        0.0000
     18 C          -2.3405    2.0942    6.8796 C.3     1  UNL1        0.0000
     19 H          -1.8937    2.2763    5.9061 H       1  UNL1        0.0000
     20 H          -3.3994    2.3149    6.8037 H       1  UNL1        0.0000
     21 H          -2.2405    1.0374    7.1021 H       1  UNL1        0.0000
     22 C           5.0586    0.8395    7.4435 C.3     1  UNL1        0.0000
     23 H           5.5207    1.4727    8.1944 H       1  UNL1        0.0000
     24 H           4.5748    0.0182    7.9625 H       1  UNL1        0.0000
     25 H           5.8539    0.4220    6.8340 H       1  UNL1        0.0000
     26 C           3.0998    0.6498    5.0342 C.3     1  UNL1        0.0000
     27 H           2.4111    1.1647    4.3712 H       1  UNL1        0.0000
     28 H           2.5665   -0.1825    5.4817 H       1  UNL1        0.0000
     29 H           3.8947    0.2367    4.4215 H       1  UNL1        0.0000
     30 C           4.7700    3.2256    5.4911 C.3     1  UNL1        0.0000
     31 H           5.4497    2.8205    4.7476 H       1  UNL1        0.0000
     32 H           5.3708    3.7957    6.1944 H       1  UNL1        0.0000
     33 H           4.0974    3.9135    4.9828 H       1  UNL1        0.0000
@<TRIPOS>BOND
     1    27    26    1
     2    29    26    1
     3    31    30    1
     4    33    30    1
     5    26    28    1
     6    26     2    1
     7    30    32    1
     8    30     2    1
     9    19    18    1
    10     2     6    1
    11     2    22    1
    12     5     4    1
    13    12    11    1
    14    20    18    1
    15    25    22    1
    16    18    21    1
    17    18     1    1
    18     4     6    2
    19     4     3    1
    20     6     7    1
    21    22    24    1
    22    22    23    1
    23    11     1    1
    24    11    13    1
    25     1     3    1
    26     1    14    1
    27     3     9    1
    28     7     8    1
    29     7     9    2
    30     9    10    1
    31    16    14    1
    32    14    17    1
    33    14    15    1
