@<TRIPOS>MOLECULE
3,4,6,8,9,31
 33 33 0 0 0
SMALL
GASTEIGER

@<TRIPOS>ATOM
      1 SI          0.7254    7.4828   10.0969 Si      1  UNL1        0.0000
      2 SI          1.5538    6.1193    4.5285 Si      1  UNL1        0.0000
      3 C           1.5126    6.8287    8.5271 C.2     1  UNL1        0.0000
      4 C           2.7823    6.1965    8.4063 C.2     1  UNL1        0.0000
      5 H           3.4468    5.9834    9.2369 H       1  UNL1        0.0000
      6 C           3.1000    6.0804    7.0447 C.2     1  UNL1        0.0000
      7 H           4.0462    5.7351    6.6443 H       1  UNL1        0.0000
      8 C           2.0551    6.6745    6.2778 C.3     1  UNL1        0.0000
      9 C           1.0836    7.1141    7.2039 C.2     1  UNL1        0.0000
     10 H           0.1945    7.6777    6.9470 H       1  UNL1        0.0000
     11 C           1.9997    8.4832   11.1141 C.3     1  UNL1        0.0000
     12 H           2.4028    9.3101   10.5382 H       1  UNL1        0.0000
     13 H           2.8356    7.8648   11.4256 H       1  UNL1        0.0000
     14 H           1.5463    8.8951   12.0101 H       1  UNL1        0.0000
     15 C          -0.7375    8.6276    9.6454 C.3     1  UNL1        0.0000
     16 H          -1.5072    8.1029    9.0873 H       1  UNL1        0.0000
     17 H          -1.2010    9.0303   10.5402 H       1  UNL1        0.0000
     18 H          -0.4078    9.4674    9.0424 H       1  UNL1        0.0000
     19 C           0.0619    6.0702   11.2117 C.3     1  UNL1        0.0000
     20 H           0.8742    5.5016   11.6560 H       1  UNL1        0.0000
     21 H          -0.5707    5.3816   10.6553 H       1  UNL1        0.0000
     22 H          -0.5290    6.4723   12.0291 H       1  UNL1        0.0000
     23 C           2.9882    6.3379    3.2758 C.3     1  UNL1        0.0000
     24 H           3.8829    5.8106    3.5896 H       1  UNL1        0.0000
     25 H           2.7047    5.9523    2.3024 H       1  UNL1        0.0000
     26 H           3.2505    7.3836    3.1535 H       1  UNL1        0.0000
     27 C           0.0891    7.2164    3.9602 C.3     1  UNL1        0.0000
     28 H          -0.7850    7.0362    4.5798 H       1  UNL1        0.0000
     29 H          -0.1829    6.9979    2.9335 H       1  UNL1        0.0000
     30 H           0.3298    8.2723    4.0185 H       1  UNL1        0.0000
     31 C           0.9834    4.3854    5.0147 C.3     1  UNL1        0.0000
     32 H          -0.0221    4.1432    4.6425 H       1  UNL1        0.0000
     33 H           1.6662    3.6000    4.6651 H       1  UNL1        0.0000
@<TRIPOS>BOND
     1    25    23    1
     2    29    27    1
     3    26    23    1
     4    23    24    1
     5    23     2    1
     6    27    30    1
     7    27     2    1
     8    27    28    1
     9     2    31    1
    10     2     8    1
    11    32    31    1
    12    33    31    1
    13     8     6    1
    14     8     9    1
    15     7     6    1
    16    10     9    1
    17     6     4    2
    18     9     3    2
    19     4     3    1
    20     4     5    1
    21     3     1    1
    22    18    15    1
    23    16    15    1
    24    15     1    1
    25    15    17    1
    26     1    11    1
    27     1    19    1
    28    12    11    1
    29    21    19    1
    30    11    13    1
    31    11    14    1
    32    19    20    1
    33    19    22    1
