@<TRIPOS>MOLECULE
4,6,7,9,11
 33 33 0 0 0
SMALL
GASTEIGER

@<TRIPOS>ATOM
      1 SI          9.1309    0.4555   11.6293 Si      1  UNL1        0.0000
      2 SI          8.8744    6.1548   12.4785 Si      1  UNL1        0.0000
      3 C           8.2572    2.1020   12.0018 C.3     1  UNL1        0.0000
      4 C           8.9100    3.2214   12.5559 C.2     1  UNL1        0.0000
      5 H           9.6948    3.1803   13.3033 H       1  UNL1        0.0000
      6 C           8.3477    4.4140   12.0340 C.2     1  UNL1        0.0000
      7 C           7.2990    4.0151   11.1595 C.2     1  UNL1        0.0000
      8 H           6.5652    4.6856   10.7304 H       1  UNL1        0.0000
      9 C           7.2630    2.6159   11.1164 C.2     1  UNL1        0.0000
     10 H           6.5110    2.0121   10.6210 H       1  UNL1        0.0000
     11 C           9.5793    0.8903    9.8500 C.3     1  UNL1        0.0000
     12 H           8.8185    0.5603    9.1319 H       1  UNL1        0.0000
     13 H          10.5496    0.4916    9.5295 H       1  UNL1        0.0000
     14 C           8.0207   -1.0605   12.0158 C.3     1  UNL1        0.0000
     15 H           7.0994   -1.0273   11.4443 H       1  UNL1        0.0000
     16 H           7.7550   -1.1066   13.0664 H       1  UNL1        0.0000
     17 H           8.5321   -1.9824   11.7625 H       1  UNL1        0.0000
     18 C          10.7244    0.3792   12.6885 C.3     1  UNL1        0.0000
     19 H          11.2722   -0.5414   12.5183 H       1  UNL1        0.0000
     20 H          10.5126    0.4415   13.7507 H       1  UNL1        0.0000
     21 H          11.3725    1.2115   12.4206 H       1  UNL1        0.0000
     22 C           8.4699    6.5570   14.3047 C.3     1  UNL1        0.0000
     23 H           8.8471    7.5367   14.5807 H       1  UNL1        0.0000
     24 H           8.9126    5.8310   14.9794 H       1  UNL1        0.0000
     25 H           7.3989    6.5549   14.4809 H       1  UNL1        0.0000
     26 C          10.7645    6.3197   12.2106 C.3     1  UNL1        0.0000
     27 H          11.0650    5.8930   11.2531 H       1  UNL1        0.0000
     28 H          11.3095    5.7854   12.9840 H       1  UNL1        0.0000
     29 H          11.0932    7.3547   12.2367 H       1  UNL1        0.0000
     30 C           7.9924    7.4457   11.3685 C.3     1  UNL1        0.0000
     31 H           8.1899    8.4497   11.7305 H       1  UNL1        0.0000
     32 H           6.9157    7.3079   11.3756 H       1  UNL1        0.0000
     33 H           8.3297    7.4002   10.3370 H       1  UNL1        0.0000
@<TRIPOS>BOND
     1    12    11    1
     2    13    11    1
     3    11     1    1
     4    33    30    1
     5    10     9    1
     6     8     7    1
     7     9     7    2
     8     9     3    1
     9     7     6    1
    10    27    26    1
    11    30    32    1
    12    30    31    1
    13    30     2    1
    14    15    14    1
    15     1     3    1
    16     1    14    1
    17     1    18    1
    18    17    14    1
    19     3     4    1
    20    14    16    1
    21     6     2    1
    22     6     4    2
    23    26    29    1
    24    26     2    1
    25    26    28    1
    26    21    18    1
    27     2    22    1
    28    19    18    1
    29     4     5    1
    30    18    20    1
    31    22    25    1
    32    22    23    1
    33    22    24    1
