@<TRIPOS>MOLECULE
6,7,8,9,10,11
 49 50 0 0 0
SMALL
GASTEIGER

@<TRIPOS>ATOM
      1 SI         -0.6744    8.0419   16.3278 Si      1  UNL1        0.0000
      2 C           3.0221    4.3410   12.9530 C.3     1  UNL1        0.0000
      3 C           4.4715    4.5383   13.3983 C.3     1  UNL1        0.0000
      4 C           4.6603    4.1863   14.8692 C.3     1  UNL1        0.0000
      5 C           3.5645    4.7123   15.7616 C.2     1  UNL1        0.0000
      6 C           1.6415    6.3308   15.8797 C.3     1  UNL1        0.0000
      7 C           0.4563    6.8651   15.3610 C.3     1  UNL1        0.0000
      8 C           0.1224    6.5752   14.0259 C.2     1  UNL1        0.0000
      9 C           0.9699    5.7882   13.2190 C.2     1  UNL1        0.0000
     10 C           2.1490    5.2474   13.7764 C.3     1  UNL1        0.0000
     11 C           2.4535    5.4394   15.1449 C.3     1  UNL1        0.0000
     12 C           3.5970    4.4527   17.0756 C.2     1  UNL1        0.0000
     13 C           4.6990    3.6989   17.7433 C.3     1  UNL1        0.0000
     14 C           2.5470    2.8905   13.0945 C.3     1  UNL1        0.0000
     15 C           0.6418    6.5854   11.0134 C.3     1  UNL1        0.0000
     16 C          -2.0216    6.1402   13.1213 C.3     1  UNL1        0.0000
     17 C           0.1280    8.3054   18.0405 C.3     1  UNL1        0.0000
     18 C          -2.3918    7.2372   16.5746 C.3     1  UNL1        0.0000
     19 C          -0.7731    9.7074   15.4167 C.3     1  UNL1        0.0000
     20 O           0.6646    5.4809   11.9065 O.2     1  UNL1        0.0000
     21 O          -1.0690    7.0963   13.5554 O.2     1  UNL1        0.0000
     22 H           2.9333    4.6226   11.8983 H       1  UNL1        0.0000
     23 H           4.7396    5.5855   13.2376 H       1  UNL1        0.0000
     24 H           5.1341    3.9230   12.7872 H       1  UNL1        0.0000
     25 H           4.7153    3.0994   14.9867 H       1  UNL1        0.0000
     26 H           5.6173    4.5861   15.2152 H       1  UNL1        0.0000
     27 H           1.8795    6.5220   16.9182 H       1  UNL1        0.0000
     28 H           2.7903    4.7767   17.7161 H       1  UNL1        0.0000
     29 H           4.7800    2.6884   17.3391 H       1  UNL1        0.0000
     30 H           4.5271    3.6280   18.8134 H       1  UNL1        0.0000
     31 H           5.6583    4.1898   17.5766 H       1  UNL1        0.0000
     32 H           3.2209    2.2206   12.5654 H       1  UNL1        0.0000
     33 H           1.5513    2.7874   12.6685 H       1  UNL1        0.0000
     34 H           2.5055    2.5938   14.1404 H       1  UNL1        0.0000
     35 H          -0.1049    7.3294   11.3018 H       1  UNL1        0.0000
     36 H           0.3917    6.1706   10.0384 H       1  UNL1        0.0000
     37 H           1.6256    7.0674   10.9757 H       1  UNL1        0.0000
     38 H          -1.6422    5.5219   12.3045 H       1  UNL1        0.0000
     39 H          -2.8810    6.7126   12.7770 H       1  UNL1        0.0000
     40 H          -2.3217    5.4910   13.9507 H       1  UNL1        0.0000
     41 H           1.1271    8.7214   17.9521 H       1  UNL1        0.0000
     42 H           0.1935    7.3876   18.6175 H       1  UNL1        0.0000
     43 H          -0.4631    9.0062   18.6200 H       1  UNL1        0.0000
     44 H          -2.9359    7.7608   17.3543 H       1  UNL1        0.0000
     45 H          -2.3199    6.1943   16.8717 H       1  UNL1        0.0000
     46 H          -2.9884    7.2883   15.6705 H       1  UNL1        0.0000
     47 H          -1.4087   10.4096   15.9472 H       1  UNL1        0.0000
     48 H          -1.1725    9.5852   14.4157 H       1  UNL1        0.0000
     49 H           0.2137   10.1535   15.3221 H       1  UNL1        0.0000
@<TRIPOS>BOND
     1    36    15    1
     2    37    15    1
     3    15    35    1
     4    15    20    1
     5    22     2    1
     6    20     9    1
     7    38    16    1
     8    32    14    1
     9    33    14    1
    10    39    16    1
    11    24     3    1
    12     2    14    1
    13     2     3    1
    14     2    10    1
    15    14    34    1
    16    16    21    1
    17    16    40    1
    18     9    10    1
    19     9     8    2
    20    23     3    1
    21     3     4    1
    22    21     8    1
    23    10    11    1
    24     8     7    1
    25    48    19    1
    26     4    25    1
    27     4    26    1
    28     4     5    1
    29    11     5    1
    30    11     6    1
    31    49    19    1
    32     7     6    1
    33     7     1    1
    34    19    47    1
    35    19     1    1
    36    46    18    1
    37     5    12    2
    38     6    27    1
    39     1    18    1
    40     1    17    1
    41    18    45    1
    42    18    44    1
    43    12    28    1
    44    12    13    1
    45    29    13    1
    46    31    13    1
    47    13    30    1
    48    41    17    1
    49    17    42    1
    50    17    43    1
