@<TRIPOS>MOLECULE
2,3,4,5,6,7
 41 42 0 0 0
SMALL
GASTEIGER

@<TRIPOS>ATOM
      1 SI          7.1038    2.0149    4.7583 Si      1  UNL1        0.0000
      2 C           6.3720    2.5972    1.9702 C.3     1  UNL1        0.0000
      3 C           6.8328    3.1020    3.2192 C.3     1  UNL1        0.0000
      4 C           7.1106    4.4810    3.3069 C.2     1  UNL1        0.0000
      5 C           6.9445    5.3487    2.2283 C.2     1  UNL1        0.0000
      6 C           6.5184    4.8313    0.9897 C.2     1  UNL1        0.0000
      7 C           6.2592    3.4770    0.8539 C.2     1  UNL1        0.0000
      8 C           6.0346    1.2022    1.8491 C.3     1  UNL1        0.0000
      9 C           5.2878   -0.8449    0.8106 C.3     1  UNL1        0.0000
     10 C           5.2708   -1.4667    2.1724 C.ar    1  UNL1        0.0000
     11 C           6.3782   -2.1645    2.6424 C.ar    1  UNL1        0.0000
     12 C           6.3606   -2.7437    3.8990 C.ar    1  UNL1        0.0000
     13 C           5.2340   -2.6341    4.6966 C.ar    1  UNL1        0.0000
     14 C           4.1263   -1.9408    4.2357 C.ar    1  UNL1        0.0000
     15 C           4.1441   -1.3582    2.9809 C.ar    1  UNL1        0.0000
     16 C           5.4399    1.2502    5.3016 C.3     1  UNL1        0.0000
     17 C           8.4140    0.6791    4.3605 C.3     1  UNL1        0.0000
     18 C           7.7724    3.1010    6.1766 C.3     1  UNL1        0.0000
     19 O           5.7734    1.0335   -0.4156 O.3     1  UNL1        0.0000
     20 N           5.7329    0.5649    0.7520 N.3     1  UNL1        0.0000
     21 H           7.5163    4.8737    4.2311 H       1  UNL1        0.0000
     22 H           7.2207    6.3926    2.3162 H       1  UNL1        0.0000
     23 H           6.4615    5.4818    0.1246 H       1  UNL1        0.0000
     24 H           6.0066    3.0633   -0.1137 H       1  UNL1        0.0000
     25 H           5.9697    0.6276    2.7567 H       1  UNL1        0.0000
     26 H           5.9487   -1.3960    0.1343 H       1  UNL1        0.0000
     27 H           4.2854   -0.8506    0.3709 H       1  UNL1        0.0000
     28 H           7.2550   -2.2583    2.0172 H       1  UNL1        0.0000
     29 H           7.2254   -3.2841    4.2537 H       1  UNL1        0.0000
     30 H           5.2188   -3.0889    5.6756 H       1  UNL1        0.0000
     31 H           3.2470   -1.8521    4.8551 H       1  UNL1        0.0000
     32 H           3.2835   -0.8101    2.6274 H       1  UNL1        0.0000
     33 H           4.6079    1.6314    4.7137 H       1  UNL1        0.0000
     34 H           5.2322    1.4873    6.3402 H       1  UNL1        0.0000
     35 H           5.4456    0.1678    5.2141 H       1  UNL1        0.0000
     36 H           9.3224    1.1132    3.9528 H       1  UNL1        0.0000
     37 H           8.6856    0.1490    5.2678 H       1  UNL1        0.0000
     38 H           8.0548   -0.0591    3.6509 H       1  UNL1        0.0000
     39 H           8.7203    3.5724    5.9336 H       1  UNL1        0.0000
     40 H           7.9352    2.4916    7.0601 H       1  UNL1        0.0000
     41 H           7.0652    3.8792    6.4484 H       1  UNL1        0.0000
@<TRIPOS>BOND
     1    19    20    1
     2    24     7    1
     3    23     6    1
     4    26     9    1
     5    27     9    1
     6    20     9    1
     7    20     8    1
     8     9    10    1
     9     7     6    2
    10     7     2    1
    11     6     5    1
    12     8     2    1
    13     8    25    1
    14     2     3    1
    15    28    11    1
    16    10    11   ar
    17    10    15   ar
    18     5    22    1
    19     5     4    2
    20    32    15    1
    21    11    12   ar
    22    15    14   ar
    23     3     4    1
    24     3     1    1
    25     4    21    1
    26    38    17    1
    27    12    29    1
    28    12    13   ar
    29    36    17    1
    30    14    13   ar
    31    14    31    1
    32    17     1    1
    33    17    37    1
    34    13    30    1
    35    33    16    1
    36     1    16    1
    37     1    18    1
    38    35    16    1
    39    16    34    1
    40    39    18    1
    41    18    41    1
    42    18    40    1
