@<TRIPOS>MOLECULE
8,9,11,13,15,26
 40 41 0 0 0
SMALL
GASTEIGER

@<TRIPOS>ATOM
      1 SI          4.6725    6.9718    3.8587 Si      1  UNL1        0.0000
      2 O           1.4713    1.5718    0.3863 O.3     1  UNL1        0.0000
      3 C           1.8766    0.2047    0.3277 C.3     1  UNL1        0.0000
      4 H           1.3160   -0.2209   -0.5066 H       1  UNL1        0.0000
      5 H           1.5976   -0.2930    1.2627 H       1  UNL1        0.0000
      6 N           2.9318    4.9063    2.7502 N.ar    1  UNL1        0.0000
      7 O           1.9538    1.6728    2.5844 O.2     1  UNL1        0.0000
      8 C           1.1933    3.6198    1.3846 C.3     1  UNL1        0.0000
      9 C           0.2572    6.2497    0.7588 C.2     1  UNL1        0.0000
     10 H          -0.1052    7.2518    0.5633 H       1  UNL1        0.0000
     11 C           1.3821    6.0661    1.5999 C.ar    1  UNL1        0.0000
     12 C           1.5989    2.2075    1.5582 C.2     1  UNL1        0.0000
     13 C          -0.4618    5.1349    0.3477 C.2     1  UNL1        0.0000
     14 H          -1.3986    5.2488   -0.1849 H       1  UNL1        0.0000
     15 C           0.0324    3.8426    0.6101 C.3     1  UNL1        0.0000
     16 H          -0.5491    2.9831    0.2977 H       1  UNL1        0.0000
     17 C           3.1886    6.2481    2.9353 C.ar    1  UNL1        0.0000
     18 C           4.4900    8.8652    3.7910 C.3     1  UNL1        0.0000
     19 H           5.3126    9.3494    4.3082 H       1  UNL1        0.0000
     20 H           3.5696    9.1966    4.2617 H       1  UNL1        0.0000
     21 H           4.4905    9.2274    2.7681 H       1  UNL1        0.0000
     22 C           3.3757    0.1000    0.0896 C.3     1  UNL1        0.0000
     23 H           3.6504   -0.9387   -0.0684 H       1  UNL1        0.0000
     24 H           3.9188    0.4815    0.9509 H       1  UNL1        0.0000
     25 H           3.6518    0.6831   -0.7856 H       1  UNL1        0.0000
     26 C           1.8453    4.7566    1.9433 C.ar    1  UNL1        0.0000
     27 C           2.2443    6.9744    2.2535 C.ar    1  UNL1        0.0000
     28 H           2.1750    8.0431    2.2217 H       1  UNL1        0.0000
     29 C           3.8023    3.8553    3.1997 C.3     1  UNL1        0.0000
     30 H           3.2214    2.9921    3.5227 H       1  UNL1        0.0000
     31 H           4.3988    4.2158    4.0318 H       1  UNL1        0.0000
     32 H           4.4680    3.5437    2.3891 H       1  UNL1        0.0000
     33 C           6.2780    6.4460    2.9728 C.3     1  UNL1        0.0000
     34 H           7.1281    7.0051    3.3517 H       1  UNL1        0.0000
     35 H           6.2126    6.6333    1.9049 H       1  UNL1        0.0000
     36 H           6.4990    5.3915    3.1058 H       1  UNL1        0.0000
     37 C           4.6822    6.4168    5.6897 C.3     1  UNL1        0.0000
     38 H           5.1716    5.4577    5.8326 H       1  UNL1        0.0000
     39 H           3.6757    6.3347    6.0896 H       1  UNL1        0.0000
     40 H           5.2154    7.1388    6.3006 H       1  UNL1        0.0000
@<TRIPOS>BOND
     1    25    22    1
     2     4     3    1
     3    14    13    1
     4    23    22    1
     5    22     3    1
     6    22    24    1
     7    16    15    1
     8     3     2    1
     9     3     5    1
    10    13    15    1
    11    13     9    2
    12     2    12    1
    13    10     9    1
    14    15     8    1
    15     9    11    1
    16     8    12    1
    17     8    26    1
    18    12     7    2
    19    11    26   ar
    20    11    27   ar
    21    35    33    1
    22    26     6   ar
    23    28    27    1
    24    27    17   ar
    25    32    29    1
    26     6    17   ar
    27     6    29    1
    28    21    18    1
    29    17     1    1
    30    33    36    1
    31    33    34    1
    32    33     1    1
    33    29    30    1
    34    29    31    1
    35    18     1    1
    36    18    20    1
    37    18    19    1
    38     1    37    1
    39    37    38    1
    40    37    39    1
    41    37    40    1
