@<TRIPOS>MOLECULE
4,5,6,8,10,12
 37 37 0 0 0
SMALL
GASTEIGER

@<TRIPOS>ATOM
      1 SI          0.5622    5.9154   10.3052 Si      1  UNL1        0.0000
      2 O           4.0387    5.7312    6.7474 O.3     1  UNL1        0.0000
      3 O           5.7733    4.2911    7.1205 O.3     1  UNL1        0.0000
      4 C           2.1688    3.3291    7.0169 C.3     1  UNL1        0.0000
      5 C           3.5341    3.4625    6.6264 C.3     1  UNL1        0.0000
      6 C           4.0180    2.7490    5.5341 C.2     1  UNL1        0.0000
      7 H           5.0295    2.9354    5.1936 H       1  UNL1        0.0000
      8 C           3.1760    1.8647    4.8289 C.2     1  UNL1        0.0000
      9 H           3.5471    1.3646    3.9425 H       1  UNL1        0.0000
     10 C           1.8436    1.7187    5.2131 C.2     1  UNL1        0.0000
     11 H           1.1732    1.0973    4.6309 H       1  UNL1        0.0000
     12 C           1.3399    2.4435    6.3084 C.2     1  UNL1        0.0000
     13 H           0.2867    2.3911    6.5597 H       1  UNL1        0.0000
     14 C           1.6491    4.1321    8.0566 C.1     1  UNL1        0.0000
     15 C           1.2069    4.8380    8.9340 C.1     1  UNL1        0.0000
     16 C          -1.3398    5.8114   10.2881 C.3     1  UNL1        0.0000
     17 H          -1.7462    6.1565    9.3420 H       1  UNL1        0.0000
     18 H          -1.7756    6.4209   11.0745 H       1  UNL1        0.0000
     19 H          -1.6784    4.7906   10.4383 H       1  UNL1        0.0000
     20 C           1.1483    7.6982    9.9644 C.3     1  UNL1        0.0000
     21 H           0.8679    8.0204    8.9660 H       1  UNL1        0.0000
     22 H           2.2283    7.7825   10.0435 H       1  UNL1        0.0000
     23 H           0.7133    8.3995   10.6709 H       1  UNL1        0.0000
     24 C           1.2786    5.2616   11.9444 C.3     1  UNL1        0.0000
     25 H           0.9283    5.8456   12.7908 H       1  UNL1        0.0000
     26 H           2.3639    5.3001   11.9451 H       1  UNL1        0.0000
     27 H           0.9903    4.2286   12.1142 H       1  UNL1        0.0000
     28 C           4.3943    4.5057    7.3114 C.3     1  UNL1        0.0000
     29 H           4.1752    4.5117    8.4031 H       1  UNL1        0.0000
     30 C           4.5673    6.8526    7.4237 C.3     1  UNL1        0.0000
     31 H           4.2029    7.7250    6.8870 H       1  UNL1        0.0000
     32 H           5.6600    6.8375    7.4132 H       1  UNL1        0.0000
     33 H           4.2105    6.8767    8.4600 H       1  UNL1        0.0000
     34 C           6.3681    3.3960    8.0342 C.3     1  UNL1        0.0000
     35 H           7.4342    3.4182    7.8188 H       1  UNL1        0.0000
     36 H           5.9860    2.3756    7.9098 H       1  UNL1        0.0000
     37 H           6.1940    3.7155    9.0675 H       1  UNL1        0.0000
@<TRIPOS>BOND
     1     9     8    1
     2    11    10    1
     3     8    10    1
     4     8     6    2
     5     7     6    1
     6    10    12    2
     7     6     5    1
     8    12    13    1
     9    12     4    1
    10     5     4    1
    11     5    28    1
    12     2    28    1
    13     2    30    1
    14    31    30    1
    15     4    14    1
    16     3    28    1
    17     3    34    1
    18    28    29    1
    19    32    30    1
    20    30    33    1
    21    35    34    1
    22    36    34    1
    23    34    37    1
    24    14    15    3
    25    15     1    1
    26    21    20    1
    27    17    16    1
    28    20    22    1
    29    20     1    1
    30    20    23    1
    31    16     1    1
    32    16    19    1
    33    16    18    1
    34     1    24    1
    35    24    26    1
    36    24    27    1
    37    24    25    1
