@<TRIPOS>MOLECULE
23,24,26,28,30,32
 56 58 0 0 0
SMALL
GASTEIGER

@<TRIPOS>ATOM
      1 SI          8.7668   11.0576   10.4180 Si      1  UNL1        0.0000
      2 O           2.1564    5.9359    8.8621 O.3     1  UNL1        0.0000
      3 O           3.6346    4.4325    7.1542 O.3     1  UNL1        0.0000
      4 O           6.2525    5.1212    8.2557 O.3     1  UNL1        0.0000
      5 O           6.1473    7.4205   10.0917 O.3     1  UNL1        0.0000
      6 O           3.1369    7.8943    8.0935 O.3     1  UNL1        0.0000
      7 O           5.1931    9.4795   10.6413 O.3     1  UNL1        0.0000
      8 C           2.8122    6.5513    7.8043 C.3     1  UNL1        0.0000
      9 H           2.1619    6.6050    6.9171 H       1  UNL1        0.0000
     10 C           4.0711    5.7276    7.4619 C.3     1  UNL1        0.0000
     11 H           4.5546    6.1893    6.5868 H       1  UNL1        0.0000
     12 C           5.0709    5.7785    8.6388 C.3     1  UNL1        0.0000
     13 H           4.6149    5.2843    9.5067 H       1  UNL1        0.0000
     14 C           5.3201    7.2623    8.9547 C.3     1  UNL1        0.0000
     15 H           5.8148    7.7203    8.0804 H       1  UNL1        0.0000
     16 C           3.9870    7.9762    9.2167 C.3     1  UNL1        0.0000
     17 H           3.5118    7.4979   10.0865 H       1  UNL1        0.0000
     18 C           4.2904    9.4341    9.5566 C.3     1  UNL1        0.0000
     19 H           4.7186    9.9319    8.6746 H       1  UNL1        0.0000
     20 H           3.3940    9.9672    9.8750 H       1  UNL1        0.0000
     21 C           6.3847    8.7766   10.3724 C.3     1  UNL1        0.0000
     22 H           6.8775    9.2406    9.4942 H       1  UNL1        0.0000
     23 C           7.2619    8.8256   11.5940 C.3     1  UNL1        0.0000
     24 C           6.9167    7.9526   12.6335 C.3     1  UNL1        0.0000
     25 H           6.0271    7.3446   12.5378 H       1  UNL1        0.0000
     26 C           7.6974    7.8964   13.7969 C.2     1  UNL1        0.0000
     27 H           7.4039    7.2483   14.6146 H       1  UNL1        0.0000
     28 C           8.7924    8.7486   13.9295 C.2     1  UNL1        0.0000
     29 H           9.3704    8.7613   14.8457 H       1  UNL1        0.0000
     30 C           9.0959    9.6542   12.8963 C.2     1  UNL1        0.0000
     31 H           9.9052   10.3566   13.0519 H       1  UNL1        0.0000
     32 C           8.3329    9.7447   11.7249 C.2     1  UNL1        0.0000
     33 C           0.8170    6.3589    9.0286 C.3     1  UNL1        0.0000
     34 H           0.4406    5.8310    9.9017 H       1  UNL1        0.0000
     35 H           0.2180    6.0971    8.1503 H       1  UNL1        0.0000
     36 H           0.7612    7.4397    9.1916 H       1  UNL1        0.0000
     37 C           4.4748    3.7146    6.2720 C.3     1  UNL1        0.0000
     38 H           3.9983    2.7459    6.1364 H       1  UNL1        0.0000
     39 H           5.4764    3.5861    6.6854 H       1  UNL1        0.0000
     40 H           4.5490    4.2266    5.3051 H       1  UNL1        0.0000
     41 C           6.9695    4.5313    9.3217 C.3     1  UNL1        0.0000
     42 H           7.8752    4.1203    8.8815 H       1  UNL1        0.0000
     43 H           6.3835    3.7277    9.7823 H       1  UNL1        0.0000
     44 H           7.2402    5.2677   10.0820 H       1  UNL1        0.0000
     45 C           7.1996   12.0457    9.9410 C.3     1  UNL1        0.0000
     46 H           7.0712   12.0716    8.8629 H       1  UNL1        0.0000
     47 H           7.2666   13.0750   10.2811 H       1  UNL1        0.0000
     48 H           6.2996   11.6169   10.3712 H       1  UNL1        0.0000
     49 C          10.0273   12.2694   11.1863 C.3     1  UNL1        0.0000
     50 H          10.2235   13.0818   10.4940 H       1  UNL1        0.0000
     51 H          10.9784   11.7880   11.3913 H       1  UNL1        0.0000
     52 H           9.6673   12.7139   12.1098 H       1  UNL1        0.0000
     53 C           9.6061   10.2029    8.9342 C.3     1  UNL1        0.0000
     54 H           9.9795   10.9357    8.2247 H       1  UNL1        0.0000
     55 H           8.9331    9.5415    8.3974 H       1  UNL1        0.0000
     56 H          10.4488    9.5987    9.2621 H       1  UNL1        0.0000
@<TRIPOS>BOND
     1    40    37    1
     2    38    37    1
     3    37    39    1
     4    37     3    1
     5    11    10    1
     6     9     8    1
     7     3    10    1
     8    10     8    1
     9    10    12    1
    10     8     6    1
    11     8     2    1
    12    15    14    1
    13     6    16    1
    14    35    33    1
    15    54    53    1
    16     4    12    1
    17     4    41    1
    18    55    53    1
    19    12    14    1
    20    12    13    1
    21    19    18    1
    22     2    33    1
    23    46    45    1
    24    42    41    1
    25    53    56    1
    26    53     1    1
    27    14    16    1
    28    14     5    1
    29    33    36    1
    30    33    34    1
    31    16    18    1
    32    16    17    1
    33    41    43    1
    34    41    44    1
    35    22    21    1
    36    18    20    1
    37    18     7    1
    38    45    47    1
    39    45    48    1
    40    45     1    1
    41     5    21    1
    42    21     7    1
    43    21    23    1
    44     1    49    1
    45     1    32    1
    46    50    49    1
    47    49    51    1
    48    49    52    1
    49    23    32    1
    50    23    24    1
    51    32    30    2
    52    25    24    1
    53    24    26    1
    54    30    31    1
    55    30    28    1
    56    26    28    2
    57    26    27    1
    58    28    29    1
