@<TRIPOS>MOLECULE
35,36,38,40,42,43
 56 58 0 0 0
SMALL
GASTEIGER

@<TRIPOS>ATOM
      1 SI          6.2908   12.3638   20.2856 Si      1  UNL1        0.0000
      2 O          12.0790    9.8513   13.4237 O.3     1  UNL1        0.0000
      3 O          13.0070   12.3255   14.1935 O.3     1  UNL1        0.0000
      4 O          10.8201   13.2564   15.6519 O.3     1  UNL1        0.0000
      5 O           8.5033   11.4445   15.5427 O.3     1  UNL1        0.0000
      6 O          10.1999   10.7677   12.3947 O.3     1  UNL1        0.0000
      7 O           7.1235   10.0926   14.2214 O.3     1  UNL1        0.0000
      8 C          11.5454   10.9563   12.7791 C.3     1  UNL1        0.0000
      9 H          12.0625   11.1452   11.8220 H       1  UNL1        0.0000
     10 C          11.6982   12.1780   13.7212 C.3     1  UNL1        0.0000
     11 H          11.3868   13.0768   13.1618 H       1  UNL1        0.0000
     12 C          10.7821   12.0392   14.9487 C.3     1  UNL1        0.0000
     13 H          11.1474   11.2138   15.5709 H       1  UNL1        0.0000
     14 C           9.3637   11.7286   14.4560 C.3     1  UNL1        0.0000
     15 H           8.9861   12.6135   13.9121 H       1  UNL1        0.0000
     16 C           9.3756   10.5216   13.5149 C.3     1  UNL1        0.0000
     17 H           9.7399    9.6529   14.0812 H       1  UNL1        0.0000
     18 C           7.9336   10.2709   13.0786 C.3     1  UNL1        0.0000
     19 H           7.5798   11.1229   12.4791 H       1  UNL1        0.0000
     20 H           7.8426    9.3548   12.4946 H       1  UNL1        0.0000
     21 C           7.1893   11.1641   15.1208 C.3     1  UNL1        0.0000
     22 H           6.7697   12.0760   14.6325 H       1  UNL1        0.0000
     23 C          12.2252    8.7118   12.6001 C.3     1  UNL1        0.0000
     24 H          12.6014    7.9232   13.2469 H       1  UNL1        0.0000
     25 H          12.9399    8.9067   11.7920 H       1  UNL1        0.0000
     26 H          11.2679    8.4122   12.1642 H       1  UNL1        0.0000
     27 C          13.9276   12.8294   13.2572 C.3     1  UNL1        0.0000
     28 H          14.8390   13.0326   13.8160 H       1  UNL1        0.0000
     29 H          13.5622   13.7583   12.8027 H       1  UNL1        0.0000
     30 H          14.1470   12.1063   12.4642 H       1  UNL1        0.0000
     31 C          10.6842   13.1204   17.0505 C.3     1  UNL1        0.0000
     32 H          10.7182   14.1313   17.4531 H       1  UNL1        0.0000
     33 H          11.5047   12.5297   17.4688 H       1  UNL1        0.0000
     34 H           9.7365   12.6412   17.3115 H       1  UNL1        0.0000
     35 C           6.4571   10.7986   16.3853 C.3     1  UNL1        0.0000
     36 C           5.7756    9.5698   16.4968 C.2     1  UNL1        0.0000
     37 H           5.6382    8.9606   15.6136 H       1  UNL1        0.0000
     38 C           5.2355    9.2008   17.7232 C.2     1  UNL1        0.0000
     39 H           4.6565    8.2889   17.8106 H       1  UNL1        0.0000
     40 C           5.4126   10.0311   18.8477 C.3     1  UNL1        0.0000
     41 H           4.9651    9.7365   19.7898 H       1  UNL1        0.0000
     42 C           6.0579   11.2696   18.7502 C.2     1  UNL1        0.0000
     43 C           6.5763   11.6400   17.4914 C.2     1  UNL1        0.0000
     44 H           7.0476   12.6066   17.3655 H       1  UNL1        0.0000
     45 C           4.6118   13.2015   20.6572 C.3     1  UNL1        0.0000
     46 H           4.2910   13.8432   19.8415 H       1  UNL1        0.0000
     47 H           4.6847   13.8172   21.5477 H       1  UNL1        0.0000
     48 H           3.8262   12.4714   20.8285 H       1  UNL1        0.0000
     49 C           7.6401   13.6602   19.9359 C.3     1  UNL1        0.0000
     50 H           7.3592   14.3473   19.1433 H       1  UNL1        0.0000
     51 H           8.5727   13.1819   19.6510 H       1  UNL1        0.0000
     52 H           7.8354   14.2553   20.8222 H       1  UNL1        0.0000
     53 C           6.8302   11.2140   21.7057 C.3     1  UNL1        0.0000
     54 H           7.6458   10.5684   21.3881 H       1  UNL1        0.0000
     55 H           6.0196   10.5772   22.0467 H       1  UNL1        0.0000
     56 H           7.1723   11.7850   22.5628 H       1  UNL1        0.0000
@<TRIPOS>BOND
     1    25    23    1
     2     9     8    1
     3    26    23    1
     4     6     8    1
     5     6    16    1
     6    30    27    1
     7    19    18    1
     8    20    18    1
     9    23    24    1
    10    23     2    1
    11     8     2    1
    12     8    10    1
    13    29    27    1
    14    18    16    1
    15    18     7    1
    16    11    10    1
    17    27    28    1
    18    27     3    1
    19    16    17    1
    20    16    14    1
    21    10     3    1
    22    10    12    1
    23    15    14    1
    24     7    21    1
    25    14    12    1
    26    14     5    1
    27    22    21    1
    28    12    13    1
    29    12     4    1
    30    21     5    1
    31    21    35    1
    32    37    36    1
    33     4    31    1
    34    35    36    1
    35    35    43    1
    36    36    38    2
    37    31    34    1
    38    31    32    1
    39    31    33    1
    40    44    43    1
    41    43    42    2
    42    38    39    1
    43    38    40    1
    44    42    40    1
    45    42     1    1
    46    40    41    1
    47    50    49    1
    48    51    49    1
    49    46    45    1
    50    49     1    1
    51    49    52    1
    52     1    45    1
    53     1    53    1
    54    45    48    1
    55    45    47    1
    56    54    53    1
    57    53    55    1
    58    53    56    1
