@<TRIPOS>MOLECULE
1,2,4,6,7,9
 24 24 0 0 0
SMALL
GASTEIGER

@<TRIPOS>ATOM
      1 C           2.4202    8.4469    5.7530 C.3     1  UNL1        0.0024
      2 C           3.6483    8.4000    6.4321 C.3     1  UNL1       -0.0056
      3 H           4.4413    9.0862    6.1528 H       1  UNL1        0.0358
      4 C           3.9043    7.3938    7.4039 C.2     1  UNL1       -0.0761
      5 H           4.8923    7.3279    7.8455 H       1  UNL1        0.0578
      6 C           2.9348    6.4218    7.7054 C.2     1  UNL1       -0.0487
      7 C           1.6926    6.4725    7.0087 C.2     1  UNL1       -0.0620
      8 H           0.9538    5.6997    7.1944 H       1  UNL1        0.0617
      9 C           1.4407    7.4577    6.0578 C.2     1  UNL1       -0.0764
     10 H           0.5063    7.4577    5.5061 H       1  UNL1        0.0578
     11 C           2.1381    9.4571    4.6828 C.3     1  UNL1       -0.0547
     12 H           1.2871   10.0746    4.9781 H       1  UNL1        0.0238
     13 H           1.8802    8.9550    3.7501 H       1  UNL1        0.0238
     14 H           2.9967   10.1031    4.5113 H       1  UNL1        0.0238
     15 C           3.2349    5.2454    8.6046 C.3     1  UNL1       -0.0218
     16 H           2.2955    4.7114    8.7856 H       1  UNL1        0.0343
     17 C           4.1973    4.2987    7.8780 C.3     1  UNL1       -0.0587
     18 H           3.7871    3.9932    6.9170 H       1  UNL1        0.0235
     19 H           4.3657    3.4087    8.4792 H       1  UNL1        0.0235
     20 H           5.1565    4.7830    7.7045 H       1  UNL1        0.0235
     21 C           3.7936    5.6673    9.9621 C.3     1  UNL1       -0.0587
     22 H           3.9255    4.7925   10.5940 H       1  UNL1        0.0235
     23 H           3.0906    6.3420   10.4458 H       1  UNL1        0.0235
     24 H           4.7565    6.1625    9.8603 H       1  UNL1        0.0235
@<TRIPOS>BOND
     1    13    11    1
     2    14    11    1
     3    11    12    1
     4    11     1    1
     5    10     9    1
     6     1     9    1
     7     1     2    1
     8     9     7    2
     9     3     2    1
    10     2     4    1
    11    18    17    1
    12     7     8    1
    13     7     6    1
    14     4     6    2
    15     4     5    1
    16    20    17    1
    17     6    15    1
    18    17    19    1
    19    17    15    1
    20    15    16    1
    21    15    21    1
    22    24    21    1
    23    21    23    1
    24    21    22    1
