@<TRIPOS>MOLECULE
2,3,4,8,24,25
 43 43 0 0 0
SMALL
GASTEIGER

@<TRIPOS>ATOM
      1 SI          6.8920   -2.2752    2.3923 Si      1  UNL1        0.0000
      2 C           8.8248    1.8955    0.9791 C.2     1  UNL1        0.0000
      3 C           9.7465    1.1940    1.8866 C.3     1  UNL1        0.0000
      4 C          10.6099    2.2543    2.4213 C.2     1  UNL1        0.0000
      5 C          10.2601    3.4511    1.8532 C.2     1  UNL1        0.0000
      6 C           9.1500    3.2314    0.9618 C.2     1  UNL1        0.0000
      7 C           7.8542    1.1954    0.0728 C.3     1  UNL1        0.0000
      8 C          10.4618   -0.0536    1.3676 C.3     1  UNL1        0.0000
      9 H          11.1096    0.2332    0.5327 H       1  UNL1        0.0000
     10 H           9.7574   -0.8083    1.0146 H       1  UNL1        0.0000
     11 H          11.0889   -0.4967    2.1420 H       1  UNL1        0.0000
     12 C          11.7479    1.9841    3.3577 C.3     1  UNL1        0.0000
     13 H          12.6444    1.7075    2.7979 H       1  UNL1        0.0000
     14 H          11.5042    1.1630    4.0338 H       1  UNL1        0.0000
     15 H          11.9894    2.8641    3.9526 H       1  UNL1        0.0000
     16 C          10.9278    4.7771    2.0373 C.3     1  UNL1        0.0000
     17 H          11.5773    4.7727    2.9093 H       1  UNL1        0.0000
     18 H          10.2021    5.5816    2.1489 H       1  UNL1        0.0000
     19 H          11.5410    5.0065    1.1648 H       1  UNL1        0.0000
     20 C           8.5498    4.3010    0.1037 C.3     1  UNL1        0.0000
     21 H           9.1999    4.4950   -0.7513 H       1  UNL1        0.0000
     22 H           8.4412    5.2401    0.6457 H       1  UNL1        0.0000
     23 H           7.5754    4.0057   -0.2803 H       1  UNL1        0.0000
     24 C           7.2762   -0.1077    0.5987 C.2     1  UNL1        0.0000
     25 C           7.3049   -0.4855    1.8832 C.2     1  UNL1        0.0000
     26 C           6.7127   -0.9146   -0.5492 C.3     1  UNL1        0.0000
     27 H           6.0690   -1.7145   -0.2104 H       1  UNL1        0.0000
     28 H           7.5295   -1.3511   -1.1254 H       1  UNL1        0.0000
     29 H           6.1474   -0.2676   -1.2202 H       1  UNL1        0.0000
     30 C           5.2630   -3.0390    1.6925 C.3     1  UNL1        0.0000
     31 H           5.4385   -3.5955    0.7777 H       1  UNL1        0.0000
     32 H           4.5016   -2.2929    1.4854 H       1  UNL1        0.0000
     33 H           4.8427   -3.7345    2.4119 H       1  UNL1        0.0000
     34 C           8.3588   -3.3535    1.7771 C.3     1  UNL1        0.0000
     35 H           9.2777   -3.0632    2.2800 H       1  UNL1        0.0000
     36 H           8.5179   -3.2526    0.7074 H       1  UNL1        0.0000
     37 H           8.1856   -4.4049    1.9860 H       1  UNL1        0.0000
     38 C           6.7277   -2.6340    4.2653 C.3     1  UNL1        0.0000
     39 H           6.8343   -3.7030    4.4278 H       1  UNL1        0.0000
     40 H           5.7579   -2.3479    4.6574 H       1  UNL1        0.0000
     41 H           7.4954   -2.1417    4.8495 H       1  UNL1        0.0000
     42 H           7.0284    1.8689   -0.1864 H       1  UNL1        0.0000
     43 H           8.3679    0.9689   -0.8729 H       1  UNL1        0.0000
@<TRIPOS>BOND
     1    29    26    1
     2    28    26    1
     3    43     7    1
     4    21    20    1
     5    26    27    1
     6    26    24    1
     7    23    20    1
     8    42     7    1
     9     7    24    1
    10     7     2    1
    11    20    22    1
    12    20     6    1
    13     9     8    1
    14    24    25    2
    15    36    34    1
    16    31    30    1
    17     6     2    2
    18     6     5    1
    19     2     3    1
    20    10     8    1
    21    19    16    1
    22     8     3    1
    23     8    11    1
    24    32    30    1
    25    30     1    1
    26    30    33    1
    27    34    37    1
    28    34    35    1
    29    34     1    1
    30     5    16    1
    31     5     4    2
    32    25     1    1
    33     3     4    1
    34    16    18    1
    35    16    17    1
    36     1    38    1
    37     4    12    1
    38    13    12    1
    39    12    15    1
    40    12    14    1
    41    38    39    1
    42    38    40    1
    43    38    41    1
