@<TRIPOS>MOLECULE
3,4,5,6,7,26
 54 54 0 0 0
SMALL
GASTEIGER

@<TRIPOS>ATOM
      1 SI         18.4999    2.5240    9.5022 Si      1  UNL1        0.0000
      2 SI         18.0863   -2.6552    8.3859 Si      1  UNL1        0.0000
      3 C          14.3451    3.0490    9.2914 C.3     1  UNL1        0.0000
      4 C          13.1306    3.1524   10.0126 C.3     1  UNL1        0.0000
      5 C          12.1331    2.4613    9.2703 C.2     1  UNL1        0.0000
      6 C          12.7221    1.9762    8.0781 C.2     1  UNL1        0.0000
      7 C          14.0925    2.3395    8.0760 C.3     1  UNL1        0.0000
      8 C          15.7122    3.5115    9.7044 C.3     1  UNL1        0.0000
      9 C          12.8731    4.1683   11.0869 C.3     1  UNL1        0.0000
     10 H          13.7572    4.3496   11.6931 H       1  UNL1        0.0000
     11 H          12.0506    3.8888   11.7400 H       1  UNL1        0.0000
     12 H          12.6008    5.1144   10.6098 H       1  UNL1        0.0000
     13 C          10.6482    2.5180    9.4763 C.3     1  UNL1        0.0000
     14 H          10.2028    3.1407    8.6961 H       1  UNL1        0.0000
     15 H          10.3895    2.9537   10.4374 H       1  UNL1        0.0000
     16 H          10.1928    1.5297    9.3978 H       1  UNL1        0.0000
     17 C          11.9621    1.3741    6.9363 C.3     1  UNL1        0.0000
     18 H          11.4230    2.1586    6.3977 H       1  UNL1        0.0000
     19 H          11.2341    0.6440    7.2900 H       1  UNL1        0.0000
     20 H          12.6358    0.8763    6.2429 H       1  UNL1        0.0000
     21 C          15.0235    2.1906    6.9066 C.3     1  UNL1        0.0000
     22 H          15.2011    1.1379    6.6743 H       1  UNL1        0.0000
     23 H          15.9829    2.6601    7.1125 H       1  UNL1        0.0000
     24 H          14.5829    2.6635    6.0261 H       1  UNL1        0.0000
     25 C          16.6219    2.3024    9.6550 C.2     1  UNL1        0.0000
     26 C          16.0323    1.0936    9.6151 C.2     1  UNL1        0.0000
     27 C          16.7335   -0.0735    9.3240 C.1     1  UNL1        0.0000
     28 C          17.3220   -1.0833    8.9790 C.1     1  UNL1        0.0000
     29 C          18.9472    4.3540    9.8366 C.3     1  UNL1        0.0000
     30 H          18.5789    4.6924   10.8002 H       1  UNL1        0.0000
     31 H          18.5404    5.0160    9.0787 H       1  UNL1        0.0000
     32 H          20.0242    4.4864    9.8361 H       1  UNL1        0.0000
     33 C          19.0597    2.0524    7.7381 C.3     1  UNL1        0.0000
     34 H          20.1426    2.0377    7.6617 H       1  UNL1        0.0000
     35 H          18.6892    2.7519    6.9942 H       1  UNL1        0.0000
     36 H          18.6928    1.0646    7.4777 H       1  UNL1        0.0000
     37 C          19.4211    1.4393   10.7756 C.3     1  UNL1        0.0000
     38 H          19.1398    0.3975   10.6659 H       1  UNL1        0.0000
     39 H          19.2086    1.7386   11.7977 H       1  UNL1        0.0000
     40 H          20.4949    1.5104   10.6327 H       1  UNL1        0.0000
     41 C          19.2600   -2.2420    6.9400 C.3     1  UNL1        0.0000
     42 H          18.7147   -1.8054    6.1087 H       1  UNL1        0.0000
     43 H          19.7659   -3.1303    6.5719 H       1  UNL1        0.0000
     44 H          20.0225   -1.5305    7.2428 H       1  UNL1        0.0000
     45 C          19.0821   -3.4157    9.8288 C.3     1  UNL1        0.0000
     46 H          19.8646   -2.7420   10.1653 H       1  UNL1        0.0000
     47 H          19.5563   -4.3468    9.5325 H       1  UNL1        0.0000
     48 H          18.4452   -3.6305   10.6822 H       1  UNL1        0.0000
     49 C          16.7143   -3.8549    7.8196 C.3     1  UNL1        0.0000
     50 H          16.3229   -4.4363    8.6494 H       1  UNL1        0.0000
     51 H          17.0724   -4.5526    7.0677 H       1  UNL1        0.0000
     52 H          15.8842   -3.3022    7.3900 H       1  UNL1        0.0000
     53 H          15.6963    3.9493   10.7082 H       1  UNL1        0.0000
     54 H          16.0867    4.2852    9.0244 H       1  UNL1        0.0000
@<TRIPOS>BOND
     1    24    21    1
     2    42    41    1
     3    20    17    1
     4    18    17    1
     5    43    41    1
     6    22    21    1
     7    21    23    1
     8    21     7    1
     9    17    19    1
    10    17     6    1
    11    41    44    1
    12    41     2    1
    13    35    33    1
    14    51    49    1
    15    52    49    1
    16    36    33    1
    17    34    33    1
    18    33     1    1
    19    49     2    1
    20    49    50    1
    21     7     6    1
    22     7     3    1
    23     6     5    2
    24     2    28    1
    25     2    45    1
    26    14    13    1
    27    28    27    3
    28    54     8    1
    29    31    29    1
    30     5    13    1
    31     5     4    1
    32     3     8    1
    33     3     4    1
    34    27    26    1
    35    16    13    1
    36    13    15    1
    37     1    25    1
    38     1    29    1
    39     1    37    1
    40    47    45    1
    41    26    25    2
    42    25     8    1
    43     8    53    1
    44    45    46    1
    45    45    48    1
    46    32    29    1
    47    29    30    1
    48     4     9    1
    49    12     9    1
    50    40    37    1
    51    38    37    1
    52    37    39    1
    53     9    10    1
    54     9    11    1
