@<TRIPOS>MOLECULE
3,6,7,21,25,26
 56 56 0 0 0
SMALL
GASTEIGER

@<TRIPOS>ATOM
      1 SI         11.3025    0.7299    2.3858 Si      1  UNL1        0.0000
      2 SI          7.8319    1.3730    4.9534 Si      1  UNL1        0.0000
      3 C           9.5555    5.1373    2.4695 C.2     1  UNL1        0.0000
      4 C           9.9079    6.4144    2.1170 C.2     1  UNL1        0.0000
      5 C           8.7413    7.1002    1.6123 C.2     1  UNL1        0.0000
      6 C           7.6737    6.2491    1.6729 C.2     1  UNL1        0.0000
      7 C           8.1183    4.9462    2.1949 C.3     1  UNL1        0.0000
      8 C          10.4814    4.0407    2.9067 C.3     1  UNL1        0.0000
      9 C          11.2720    7.0290    2.1519 C.3     1  UNL1        0.0000
     10 H          11.9560    6.4472    2.7665 H       1  UNL1        0.0000
     11 H          11.2421    8.0498    2.5337 H       1  UNL1        0.0000
     12 H          11.6843    7.0735    1.1424 H       1  UNL1        0.0000
     13 C           8.7732    8.4957    1.0762 C.3     1  UNL1        0.0000
     14 H           9.3019    8.5142    0.1221 H       1  UNL1        0.0000
     15 H           9.2930    9.1740    1.7525 H       1  UNL1        0.0000
     16 H           7.7679    8.8753    0.9097 H       1  UNL1        0.0000
     17 C           6.2728    6.4981    1.2023 C.3     1  UNL1        0.0000
     18 H           6.1614    6.1947    0.1587 H       1  UNL1        0.0000
     19 H           6.0147    7.5544    1.2672 H       1  UNL1        0.0000
     20 H           5.5589    5.9278    1.7994 H       1  UNL1        0.0000
     21 C           7.7188    3.7397    1.3411 C.3     1  UNL1        0.0000
     22 H           6.6380    3.7013    1.1980 H       1  UNL1        0.0000
     23 H           8.0477    2.8031    1.7919 H       1  UNL1        0.0000
     24 H           8.1849    3.8343    0.3549 H       1  UNL1        0.0000
     25 C           9.8697    2.9351    3.7488 C.3     1  UNL1        0.0000
     26 C           8.6547    2.9634    4.3136 C.3     1  UNL1        0.0000
     27 C          10.8356    1.8170    3.8846 C.2     1  UNL1        0.0000
     28 C          11.4666    1.6547    5.0426 C.2     1  UNL1        0.0000
     29 C          13.1213    1.1245    1.9393 C.3     1  UNL1        0.0000
     30 H          13.7775    0.9646    2.7891 H       1  UNL1        0.0000
     31 H          13.2457    2.1559    1.6228 H       1  UNL1        0.0000
     32 H          13.4715    0.4902    1.1307 H       1  UNL1        0.0000
     33 C          10.2269    1.0072    0.8351 C.3     1  UNL1        0.0000
     34 H          10.5144    0.3077    0.0553 H       1  UNL1        0.0000
     35 H          10.3318    2.0069    0.4265 H       1  UNL1        0.0000
     36 H           9.1733    0.8480    1.0389 H       1  UNL1        0.0000
     37 C          11.1691   -1.1108    2.8733 C.3     1  UNL1        0.0000
     38 H          10.1381   -1.4057    3.0433 H       1  UNL1        0.0000
     39 H          11.7264   -1.3264    3.7794 H       1  UNL1        0.0000
     40 H          11.5662   -1.7469    2.0878 H       1  UNL1        0.0000
     41 C           7.0988    0.4945    3.4090 C.3     1  UNL1        0.0000
     42 H           6.5268   -0.3815    3.6993 H       1  UNL1        0.0000
     43 H           7.8767    0.1645    2.7276 H       1  UNL1        0.0000
     44 H           6.4308    1.1577    2.8654 H       1  UNL1        0.0000
     45 C           6.3529    1.6469    6.1411 C.3     1  UNL1        0.0000
     46 H           5.7361    0.7528    6.1522 H       1  UNL1        0.0000
     47 H           5.7220    2.4683    5.8218 H       1  UNL1        0.0000
     48 H           6.6680    1.8281    7.1630 H       1  UNL1        0.0000
     49 C           8.8801    0.0597    5.8800 C.3     1  UNL1        0.0000
     50 H           9.4105    0.4823    6.7268 H       1  UNL1        0.0000
     51 H           9.6144   -0.4023    5.2331 H       1  UNL1        0.0000
     52 H           8.2317   -0.7235    6.2611 H       1  UNL1        0.0000
     53 H          10.9087    3.5641    2.0141 H       1  UNL1        0.0000
     54 H          11.3341    4.4593    3.4541 H       1  UNL1        0.0000
     55 H          12.2051    0.8848    5.1935 H       1  UNL1        0.0000
     56 H          11.2653    2.2857    5.8964 H       1  UNL1        0.0000
@<TRIPOS>BOND
     1    34    33    1
     2    14    13    1
     3    18    17    1
     4    24    21    1
     5    35    33    1
     6    33    36    1
     7    33     1    1
     8    16    13    1
     9    13     5    1
    10    13    15    1
    11    32    29    1
    12    12     9    1
    13    22    21    1
    14    17    19    1
    15    17     6    1
    16    17    20    1
    17    21    23    1
    18    21     7    1
    19     5     6    2
    20     5     4    1
    21    31    29    1
    22     6     7    1
    23    29     1    1
    24    29    30    1
    25    53     8    1
    26    40    37    1
    27     4     9    1
    28     4     3    2
    29     9    11    1
    30     9    10    1
    31     7     3    1
    32     1    37    1
    33     1    27    1
    34     3     8    1
    35    43    41    1
    36    44    41    1
    37    37    38    1
    38    37    39    1
    39     8    54    1
    40     8    25    1
    41    41    42    1
    42    41     2    1
    43    25    27    1
    44    25    26    1
    45    27    28    2
    46    26     2    1
    47     2    49    1
    48     2    45    1
    49    28    55    1
    50    28    56    1
    51    51    49    1
    52    47    45    1
    53    49    52    1
    54    49    50    1
    55    45    46    1
    56    45    48    1
