@<TRIPOS>MOLECULE
2,3,4,5,6,26
 63 64 0 0 0
SMALL
GASTEIGER

@<TRIPOS>ATOM
      1 SI          1.5802    2.9223    7.9574 Si      1  UNL1        0.0000
      2 C           3.8911    6.1132    5.4122 C.3     1  UNL1        0.0000
      3 C           4.1478    6.4748    6.7743 C.2     1  UNL1        0.0000
      4 C           4.1305    7.8858    6.8459 C.2     1  UNL1        0.0000
      5 C           3.8494    8.3972    5.5544 C.3     1  UNL1        0.0000
      6 C           3.7844    7.3080    4.6446 C.3     1  UNL1        0.0000
      7 C           4.0186    4.7376    4.8457 C.3     1  UNL1        0.0000
      8 C           4.7462    5.5678    7.8100 C.3     1  UNL1        0.0000
      9 H           5.8267    5.7352    7.8381 H       1  UNL1        0.0000
     10 H           4.5645    4.5246    7.5672 H       1  UNL1        0.0000
     11 H           4.3494    5.7670    8.8018 H       1  UNL1        0.0000
     12 C           4.5272    8.7184    8.0254 C.3     1  UNL1        0.0000
     13 H           4.5438    8.1237    8.9355 H       1  UNL1        0.0000
     14 H           3.8434    9.5537    8.1703 H       1  UNL1        0.0000
     15 H           5.5277    9.1268    7.8614 H       1  UNL1        0.0000
     16 C           3.8309    9.8593    5.2242 C.3     1  UNL1        0.0000
     17 H           4.8312   10.2848    5.3353 H       1  UNL1        0.0000
     18 H           3.1650   10.3941    5.9035 H       1  UNL1        0.0000
     19 H           3.4990   10.0355    4.2025 H       1  UNL1        0.0000
     20 C           4.1347    7.3807    3.1855 C.3     1  UNL1        0.0000
     21 H           5.2063    7.1787    3.0891 H       1  UNL1        0.0000
     22 H           3.9536    8.3677    2.7708 H       1  UNL1        0.0000
     23 H           3.6117    6.6426    2.5829 H       1  UNL1        0.0000
     24 C           3.1749    3.6716    5.5215 C.3     1  UNL1        0.0000
     25 C           2.2831    3.9308    6.4888 C.3     1  UNL1        0.0000
     26 C           1.8479    5.2099    7.1379 C.2     1  UNL1        0.0000
     27 C           1.4074    4.7629    8.3514 C.2     1  UNL1        0.0000
     28 C           0.9602    5.4203    9.6316 C.3     1  UNL1        0.0000
     29 C           3.5391    2.2530    5.0682 C.3     1  UNL1        0.0000
     30 C           3.9014    2.2070    3.5732 C.3     1  UNL1        0.0000
     31 H           4.0943    1.1760    3.2820 H       1  UNL1        0.0000
     32 H           4.7966    2.7789    3.3477 H       1  UNL1        0.0000
     33 H           3.0812    2.5785    2.9626 H       1  UNL1        0.0000
     34 C           4.7559    1.7646    5.8690 C.3     1  UNL1        0.0000
     35 H           4.5481    1.8027    6.9337 H       1  UNL1        0.0000
     36 H           5.6289    2.3819    5.6680 H       1  UNL1        0.0000
     37 H           4.9980    0.7390    5.5970 H       1  UNL1        0.0000
     38 C           2.3859    1.2649    5.2691 C.3     1  UNL1        0.0000
     39 H           2.5917    0.3411    4.7316 H       1  UNL1        0.0000
     40 H           1.4526    1.6784    4.8952 H       1  UNL1        0.0000
     41 H           2.2606    1.0163    6.3151 H       1  UNL1        0.0000
     42 C           2.7765    1.8766    9.0265 C.3     1  UNL1        0.0000
     43 H           3.7022    2.4050    9.2328 H       1  UNL1        0.0000
     44 H           3.0268    0.9317    8.5541 H       1  UNL1        0.0000
     45 H           2.3128    1.6407    9.9794 H       1  UNL1        0.0000
     46 C          -0.0272    1.8990    7.8116 C.3     1  UNL1        0.0000
     47 H          -0.4239    1.7082    8.8039 H       1  UNL1        0.0000
     48 H           0.1528    0.9350    7.3477 H       1  UNL1        0.0000
     49 H          -0.7973    2.4033    7.2410 H       1  UNL1        0.0000
     50 C           2.0362    6.3714   10.1672 C.3     1  UNL1        0.0000
     51 H           2.9220    5.8095   10.4597 H       1  UNL1        0.0000
     52 H           1.6660    6.9017   11.0429 H       1  UNL1        0.0000
     53 H           2.3049    7.1013    9.4082 H       1  UNL1        0.0000
     54 C          -0.3401    6.1946    9.4039 C.3     1  UNL1        0.0000
     55 H          -0.1692    6.9801    8.6766 H       1  UNL1        0.0000
     56 H          -0.6809    6.6454   10.3343 H       1  UNL1        0.0000
     57 H          -1.1189    5.5249    9.0422 H       1  UNL1        0.0000
     58 C           0.6998    4.3473   10.6952 C.3     1  UNL1        0.0000
     59 H          -0.0724    3.6572   10.3645 H       1  UNL1        0.0000
     60 H           0.3676    4.8133   11.6213 H       1  UNL1        0.0000
     61 H           1.6055    3.7841   10.9033 H       1  UNL1        0.0000
     62 H           3.7951    4.7733    3.7776 H       1  UNL1        0.0000
     63 H           5.0682    4.4259    4.9428 H       1  UNL1        0.0000
@<TRIPOS>BOND
     1    23    20    1
     2    22    20    1
     3    33    30    1
     4    21    20    1
     5    20     6    1
     6    31    30    1
     7    32    30    1
     8    30    29    1
     9    62     7    1
    10    19    16    1
    11     6     2    1
    12     6     5    1
    13    39    38    1
    14     7    63    1
    15     7     2    1
    16     7    24    1
    17    40    38    1
    18    29    38    1
    19    29    24    1
    20    29    34    1
    21    16    17    1
    22    16     5    1
    23    16    18    1
    24    38    41    1
    25     2     3    1
    26    24    25    1
    27     5     4    1
    28    37    34    1
    29    36    34    1
    30    34    35    1
    31    25    26    1
    32    25     1    1
    33     3     4    2
    34     3     8    1
    35     4    12    1
    36    26    27    2
    37    49    46    1
    38    48    46    1
    39    10     8    1
    40     8     9    1
    41     8    11    1
    42    46     1    1
    43    46    47    1
    44    15    12    1
    45     1    27    1
    46     1    42    1
    47    12    14    1
    48    12    13    1
    49    27    28    1
    50    44    42    1
    51    55    54    1
    52    42    43    1
    53    42    45    1
    54    57    54    1
    55    54    28    1
    56    54    56    1
    57    53    50    1
    58    28    50    1
    59    28    58    1
    60    50    51    1
    61    50    52    1
    62    59    58    1
    63    58    61    1
    64    58    60    1
