@<TRIPOS>MOLECULE
3,5,6,8,10,31
 33 33 0 0 0
SMALL
GASTEIGER

@<TRIPOS>ATOM
      1 SI          7.8145    5.2841    5.5565 Si      1  UNL1        0.0000
      2 SI          2.5089    4.4055    3.3284 Si      1  UNL1        0.0000
      3 C           5.0270    5.0256    4.6475 C.2     1  UNL1        0.0000
      4 H           4.6086    5.2506    5.6197 H       1  UNL1        0.0000
      5 C           6.4153    4.9006    4.3696 C.2     1  UNL1        0.0000
      6 C           6.5266    4.8186    2.9529 C.2     1  UNL1        0.0000
      7 H           7.4613    4.8744    2.4092 H       1  UNL1        0.0000
      8 C           5.2434    4.8707    2.3933 C.2     1  UNL1        0.0000
      9 H           5.0063    4.9159    1.3360 H       1  UNL1        0.0000
     10 C           4.2953    5.0278    3.4383 C.3     1  UNL1        0.0000
     11 C           7.1675    6.3912    6.9752 C.3     1  UNL1        0.0000
     12 H           7.9809    6.6996    7.6244 H       1  UNL1        0.0000
     13 H           6.4380    5.8747    7.5912 H       1  UNL1        0.0000
     14 H           6.6947    7.2890    6.5904 H       1  UNL1        0.0000
     15 C           9.1783    6.2644    4.6356 C.3     1  UNL1        0.0000
     16 H           9.9596    6.5762    5.3218 H       1  UNL1        0.0000
     17 H           8.7719    7.1582    4.1729 H       1  UNL1        0.0000
     18 H           9.6494    5.6785    3.8525 H       1  UNL1        0.0000
     19 C           8.6168    3.7200    6.3262 C.3     1  UNL1        0.0000
     20 H           9.6942    3.8314    6.4060 H       1  UNL1        0.0000
     21 H           8.4172    2.8321    5.7316 H       1  UNL1        0.0000
     22 H           8.2387    3.5361    7.3269 H       1  UNL1        0.0000
     23 C           1.7965    4.7360    1.5803 C.3     1  UNL1        0.0000
     24 H           0.7245    4.5727    1.5664 H       1  UNL1        0.0000
     25 H           2.2387    4.0629    0.8532 H       1  UNL1        0.0000
     26 H           1.9794    5.7538    1.2523 H       1  UNL1        0.0000
     27 C           1.3875    5.3174    4.5867 C.3     1  UNL1        0.0000
     28 H           1.2919    6.3693    4.3398 H       1  UNL1        0.0000
     29 H           1.7785    5.2508    5.5961 H       1  UNL1        0.0000
     30 H           0.3915    4.8880    4.5913 H       1  UNL1        0.0000
     31 C           2.9182    2.5858    3.6371 C.3     1  UNL1        0.0000
     32 H           2.5852    1.9787    2.7883 H       1  UNL1        0.0000
     33 H           2.4439    2.1702    4.5340 H       1  UNL1        0.0000
@<TRIPOS>BOND
     1    25    23    1
     2    26    23    1
     3     9     8    1
     4    24    23    1
     5    23     2    1
     6     8     6    2
     7     8    10    1
     8     7     6    1
     9    32    31    1
    10     6     5    1
    11     2    10    1
    12     2    31    1
    13     2    27    1
    14    10     3    1
    15    31    33    1
    16    18    15    1
    17    17    15    1
    18    28    27    1
    19     5     3    2
    20     5     1    1
    21    27    30    1
    22    27    29    1
    23    15    16    1
    24    15     1    1
    25     3     4    1
    26     1    19    1
    27     1    11    1
    28    21    19    1
    29    19    20    1
    30    19    22    1
    31    14    11    1
    32    11    13    1
    33    11    12    1
