@<TRIPOS>MOLECULE
3,5,6,8,10,23
 33 33 0 0 0
SMALL
GASTEIGER

@<TRIPOS>ATOM
      1 SI          9.8148   10.4309   13.0983 Si      1  UNL1        0.0000
      2 SI          8.9159   15.6820   10.7466 Si      1  UNL1        0.0000
      3 C           9.1988   13.1467   12.1508 C.3     1  UNL1        0.0000
      4 H           9.0096   13.5312   13.1439 H       1  UNL1        0.0000
      5 C           9.6515   11.8309   11.8612 C.3     1  UNL1        0.0000
      6 C           9.5563   11.6875   10.4473 C.2     1  UNL1        0.0000
      7 H           9.6337   10.7431    9.9245 H       1  UNL1        0.0000
      8 C           9.0856   12.8880    9.8996 C.2     1  UNL1        0.0000
      9 H           8.8046   13.0531    8.8655 H       1  UNL1        0.0000
     10 C           8.8291   13.8013   10.9553 C.3     1  UNL1        0.0000
     11 C           9.2396    8.7956   12.2841 C.3     1  UNL1        0.0000
     12 H           9.9006    8.4801   11.4833 H       1  UNL1        0.0000
     13 H           8.2426    8.8955   11.8669 H       1  UNL1        0.0000
     14 H           9.2094    7.9933   13.0149 H       1  UNL1        0.0000
     15 C          11.5906   10.1662   13.7782 C.3     1  UNL1        0.0000
     16 H          12.3447   10.5989   13.1264 H       1  UNL1        0.0000
     17 H          11.8109    9.1081   13.8874 H       1  UNL1        0.0000
     18 H          11.7053   10.6193   14.7579 H       1  UNL1        0.0000
     19 C           8.6646   10.7768   14.5870 C.3     1  UNL1        0.0000
     20 H           7.6411   10.9414   14.2660 H       1  UNL1        0.0000
     21 H           8.9786   11.6549   15.1428 H       1  UNL1        0.0000
     22 H           8.6632    9.9389   15.2772 H       1  UNL1        0.0000
     23 C          10.8028   15.7788   10.7664 C.3     1  UNL1        0.0000
     24 H          11.2028   16.3871   11.5865 H       1  UNL1        0.0000
     25 H          11.1685   16.2204    9.8325 H       1  UNL1        0.0000
     26 C           8.1271   16.1943    9.0773 C.3     1  UNL1        0.0000
     27 H           8.0868   17.2746    8.9894 H       1  UNL1        0.0000
     28 H           7.1148   15.8172    8.9764 H       1  UNL1        0.0000
     29 H           8.7087   15.8176    8.2429 H       1  UNL1        0.0000
     30 C           7.9318   16.5758   12.1266 C.3     1  UNL1        0.0000
     31 H           6.8663   16.3980   12.0283 H       1  UNL1        0.0000
     32 H           8.0925   17.6473   12.0754 H       1  UNL1        0.0000
     33 H           8.2301   16.2461   13.1158 H       1  UNL1        0.0000
@<TRIPOS>BOND
     1    29    26    1
     2     9     8    1
     3    28    26    1
     4    27    26    1
     5    26     2    1
     6    25    23    1
     7     8     6    2
     8     8    10    1
     9     7     6    1
    10     6     5    1
    11     2    23    1
    12     2    10    1
    13     2    30    1
    14    23    24    1
    15    10     3    1
    16    12    11    1
    17     5     3    1
    18     5     1    1
    19    13    11    1
    20    31    30    1
    21    32    30    1
    22    30    33    1
    23     3     4    1
    24    11    14    1
    25    11     1    1
    26     1    15    1
    27     1    19    1
    28    16    15    1
    29    15    17    1
    30    15    18    1
    31    20    19    1
    32    19    21    1
    33    19    22    1
