@<TRIPOS>MOLECULE
3,4,5,6,7,8
 38 38 0 0 0
SMALL
GASTEIGER

@<TRIPOS>ATOM
      1 SI         -0.6554    6.3158    1.0363 Si      1  UNL1        0.0000
      2 N          -1.2351    4.7376    1.5732 N.pl3   1  UNL1        0.0000
      3 C          -0.5438    3.5545    1.4648 C.2     1  UNL1        0.0000
      4 C          -1.1708    2.3007    1.6835 C.2     1  UNL1        0.0000
      5 C          -0.4616    1.1045    1.5352 C.3     1  UNL1        0.0000
      6 C           0.8848    1.1022    1.1425 C.3     1  UNL1        0.0000
      7 C           1.5240    2.3321    0.9659 C.3     1  UNL1        0.0000
      8 C           0.8253    3.5369    1.1215 C.3     1  UNL1        0.0000
      9 C          -2.4774    4.6888    2.3237 C.3     1  UNL1        0.0000
     10 C           0.2775    6.1430   -0.6257 C.3     1  UNL1        0.0000
     11 C          -2.2218    7.3275    0.6248 C.3     1  UNL1        0.0000
     12 C           0.3764    7.2281    2.3947 C.3     1  UNL1        0.0000
     13 C           1.6840    6.5039    2.7310 C.3     1  UNL1        0.0000
     14 C           0.7156    8.6359    1.8931 C.3     1  UNL1        0.0000
     15 C          -0.4329    7.3511    3.6898 C.3     1  UNL1        0.0000
     16 H          -2.2323    2.2476    1.8791 H       1  UNL1        0.0000
     17 H          -0.9940    0.1643    1.6287 H       1  UNL1        0.0000
     18 H           1.4012    0.1720    0.9445 H       1  UNL1        0.0000
     19 H           2.5526    2.3618    0.6237 H       1  UNL1        0.0000
     20 H           1.3330    4.4645    0.9207 H       1  UNL1        0.0000
     21 H          -2.7848    5.6969    2.5740 H       1  UNL1        0.0000
     22 H          -2.3361    4.1333    3.2542 H       1  UNL1        0.0000
     23 H          -3.2779    4.2233    1.7424 H       1  UNL1        0.0000
     24 H           1.3541    6.2246   -0.5156 H       1  UNL1        0.0000
     25 H          -0.0284    6.9325   -1.3046 H       1  UNL1        0.0000
     26 H           0.0659    5.1969   -1.1145 H       1  UNL1        0.0000
     27 H          -1.9615    8.1799    0.0064 H       1  UNL1        0.0000
     28 H          -2.7199    7.7165    1.5062 H       1  UNL1        0.0000
     29 H          -2.9455    6.7361    0.0725 H       1  UNL1        0.0000
     30 H           1.4930    5.5125    3.1408 H       1  UNL1        0.0000
     31 H           2.2361    7.0706    3.4794 H       1  UNL1        0.0000
     32 H           2.3223    6.4099    1.8546 H       1  UNL1        0.0000
     33 H           1.2994    8.5934    0.9766 H       1  UNL1        0.0000
     34 H          -0.1887    9.2050    1.6942 H       1  UNL1        0.0000
     35 H           1.2965    9.1727    2.6413 H       1  UNL1        0.0000
     36 H          -1.3685    7.8803    3.5234 H       1  UNL1        0.0000
     37 H           0.1375    7.9074    4.4319 H       1  UNL1        0.0000
     38 H          -0.6518    6.3715    4.1060 H       1  UNL1        0.0000
@<TRIPOS>BOND
     1    25    10    1
     2    26    10    1
     3    10    24    1
     4    10     1    1
     5    27    11    1
     6    29    11    1
     7    19     7    1
     8    11     1    1
     9    11    28    1
    10    20     8    1
    11    18     6    1
    12     7     8    1
    13     7     6    1
    14    33    14    1
    15     1     2    1
    16     1    12    1
    17     8     3    1
    18     6     5    1
    19     3     2    1
    20     3     4    2
    21     5    17    1
    22     5     4    1
    23     2     9    1
    24     4    16    1
    25    34    14    1
    26    23     9    1
    27    32    13    1
    28    14    12    1
    29    14    35    1
    30     9    21    1
    31     9    22    1
    32    12    13    1
    33    12    15    1
    34    13    30    1
    35    13    31    1
    36    36    15    1
    37    15    38    1
    38    15    37    1
