@<TRIPOS>MOLECULE
3,6,7,8,13,14
 46 55 0 0 0
SMALL
GASTEIGER

@<TRIPOS>ATOM
      1 SI         11.9659    5.2985    2.2598 Si      1  UNL1        0.0000
      2 C          11.8455    6.0592    0.5135 C.3     1  UNL1        0.0000
      3 C          10.8826    7.3768    0.3369 C.3     1  UNL1        0.0000
      4 C          13.7846    5.2916    2.8598 C.3     1  UNL1        0.0000
      5 C          11.3690    3.4815    2.2525 C.3     1  UNL1        0.0000
      6 C          10.9540    6.4337    3.3476 C.3     1  UNL1        0.0000
      7 C          11.4636    7.5942    3.9970 C.2     1  UNL1        0.0000
      8 C          10.4507    8.2385    4.7177 C.2     1  UNL1        0.0000
      9 C           8.0261    7.5093    5.2422 C.ar    1  UNL1        0.0000
     10 C           7.1023    6.5201    5.0036 C.ar    1  UNL1        0.0000
     11 C           7.3672    5.4800    4.0994 C.ar    1  UNL1        0.0000
     12 C           8.5764    5.3850    3.4535 C.ar    1  UNL1        0.0000
     13 C           9.5708    6.3437    3.7171 C.ar    1  UNL1        0.0000
     14 C           9.2698    7.4527    4.5938 C.ar    1  UNL1        0.0000
     15 B          12.5912    7.5667    0.2772 B       1  UNL1        0.0000
     16 B          11.5786    8.3979   -0.8860 B       1  UNL1        0.0000
     17 B          10.2199    7.3601   -1.2607 B       1  UNL1        0.0000
     18 B          10.3849    5.8791   -0.3342 B       1  UNL1        0.0000
     19 B          11.8588    5.0648   -0.8813 B       1  UNL1        0.0000
     20 B          13.2253    6.1105   -0.5045 B       1  UNL1        0.0000
     21 B          13.0733    7.6106   -1.4273 B       1  UNL1        0.0000
     22 B          11.5778    7.4709   -2.4003 B       1  UNL1        0.0000
     23 B          10.8172    5.8872   -2.0521 B       1  UNL1        0.0000
     24 B          12.6002    6.0422   -2.1588 B       1  UNL1        0.0000
     25 H          13.8377    5.0248    3.9108 H       1  UNL1        0.0000
     26 H          14.2661    6.2564    2.7384 H       1  UNL1        0.0000
     27 H          14.3732    4.5655    2.3095 H       1  UNL1        0.0000
     28 H          11.1192    3.1546    3.2568 H       1  UNL1        0.0000
     29 H          12.1512    2.8274    1.8814 H       1  UNL1        0.0000
     30 H          10.4976    3.3284    1.6247 H       1  UNL1        0.0000
     31 H          12.5165    7.8564    4.0262 H       1  UNL1        0.0000
     32 H          10.5793    9.0751    5.3943 H       1  UNL1        0.0000
     33 H           7.8134    8.3062    5.9439 H       1  UNL1        0.0000
     34 H           6.1553    6.5310    5.5251 H       1  UNL1        0.0000
     35 H           6.6061    4.7329    3.9264 H       1  UNL1        0.0000
     36 H           8.7787    4.5509    2.7947 H       1  UNL1        0.0000
     37 H          13.0988    8.0754    1.2208 H       1  UNL1        0.0000
     38 H          11.4074    9.5601   -0.7821 H       1  UNL1        0.0000
     39 H           9.1522    7.8354   -1.4105 H       1  UNL1        0.0000
     40 H           9.4966    5.3210    0.2189 H       1  UNL1        0.0000
     41 H          11.9598    3.9034   -0.7211 H       1  UNL1        0.0000
     42 H          14.2211    5.6338   -0.0986 H       1  UNL1        0.0000
     43 H          14.0123    8.2237   -1.7860 H       1  UNL1        0.0000
     44 H          11.4612    8.0003   -3.4455 H       1  UNL1        0.0000
     45 H          10.1809    5.2991   -2.8491 H       1  UNL1        0.0000
     46 H          13.2182    5.5490   -3.0311 H       1  UNL1        0.0000
@<TRIPOS>BOND
     1    44    22    1
     2    46    24    1
     3    45    23    1
     4    22    24    1
     5    22    23    1
     6    22    21    1
     7    24    23    1
     8    24    20    1
     9    23    19    1
    10    43    21    1
    11    21    16    1
    12    21    20    1
    13    39    17    1
    14    17    16    1
    15    17    18    1
    16    17     3    1
    17    16    38    1
    18    16    15    1
    19    19    41    1
    20    19    20    1
    21    19     2    1
    22    20    42    1
    23    18    40    1
    24    18     3    1
    25    18     2    1
    26    15     3    1
    27    15     2    1
    28    15    37    1
    29     3     2    1
    30    30     5    1
    31    29     5    1
    32     5     1    1
    33     5    28    1
    34     1     4    1
    35     1     6    1
    36    27     4    1
    37    26     4    1
    38    36    12    1
    39     4    25    1
    40     6    13    1
    41     6     7    1
    42    12    13   ar
    43    12    11   ar
    44    13    14   ar
    45    35    11    1
    46     7    31    1
    47     7     8    2
    48    11    10   ar
    49    14     8    1
    50    14     9   ar
    51     8    32    1
    52    10     9   ar
    53    10    34    1
    54     9    33    1
    55     1     2    0
