@<TRIPOS>MOLECULE
3,6,7,8,9,10
 40 46 0 0 0
SMALL
GASTEIGER

@<TRIPOS>ATOM
      1 SI          5.8133    2.7967    2.7559 Si      1  UNL1        0.0000
      2 C           4.2220    2.9828    1.7163 C.3     1  UNL1        0.0000
      3 C           2.8432    2.4850    2.4472 C.3     1  UNL1        0.0000
      4 C           6.5118    4.5015    3.2668 C.3     1  UNL1        0.0000
      5 C           7.1535    1.8825    1.7435 C.3     1  UNL1        0.0000
      6 C           5.3080    1.7901    4.2555 C.3     1  UNL1        0.0000
      7 C           4.8351    2.2630    5.5119 C.3     1  UNL1        0.0000
      8 C           4.5125    1.1525    6.3134 C.2     1  UNL1        0.0000
      9 C           4.7763   -0.0171    5.5678 C.2     1  UNL1        0.0000
     10 C           5.2535    0.3706    4.3067 C.3     1  UNL1        0.0000
     11 B           3.4996    1.5579    1.1481 B       1  UNL1        0.0000
     12 B           4.2042    2.7071    0.0144 B       1  UNL1        0.0000
     13 B           3.9683    4.3187    0.6729 B       1  UNL1        0.0000
     14 B           3.1096    4.1642    2.2104 B       1  UNL1        0.0000
     15 B           1.7685    1.8631    1.2386 B       1  UNL1        0.0000
     16 B           2.6172    1.9855   -0.3196 B       1  UNL1        0.0000
     17 B           2.9060    3.7278   -0.6195 B       1  UNL1        0.0000
     18 B           2.2300    4.6533    0.7548 B       1  UNL1        0.0000
     19 B           1.5360    3.4750    1.8892 B       1  UNL1        0.0000
     20 B           1.3861    3.2015    0.1375 B       1  UNL1        0.0000
     21 H           7.4018    4.3777    3.8751 H       1  UNL1        0.0000
     22 H           5.8027    5.0909    3.8382 H       1  UNL1        0.0000
     23 H           6.7893    5.0836    2.3947 H       1  UNL1        0.0000
     24 H           8.0081    1.6447    2.3691 H       1  UNL1        0.0000
     25 H           7.5093    2.4972    0.9234 H       1  UNL1        0.0000
     26 H           6.7863    0.9539    1.3186 H       1  UNL1        0.0000
     27 H           4.8785    3.2934    5.8457 H       1  UNL1        0.0000
     28 H           4.2412    1.1759    7.3632 H       1  UNL1        0.0000
     29 H           4.7362   -1.0291    5.9519 H       1  UNL1        0.0000
     30 H           5.6602   -0.2887    3.5491 H       1  UNL1        0.0000
     31 H           4.0319    0.5368    1.4404 H       1  UNL1        0.0000
     32 H           5.2223    2.4381   -0.5099 H       1  UNL1        0.0000
     33 H           4.8332    5.1125    0.5848 H       1  UNL1        0.0000
     34 H           3.3912    4.8189    3.1492 H       1  UNL1        0.0000
     35 H           1.0400    0.9917    1.5826 H       1  UNL1        0.0000
     36 H           2.4551    1.2068   -1.1879 H       1  UNL1        0.0000
     37 H           2.9522    4.1770   -1.7070 H       1  UNL1        0.0000
     38 H           1.7956    5.7413    0.6382 H       1  UNL1        0.0000
     39 H           0.6507    3.6832    2.6401 H       1  UNL1        0.0000
     40 H           0.3470    3.2734   -0.4118 H       1  UNL1        0.0000
@<TRIPOS>BOND
     1    37    17    1
     2    36    16    1
     3    17    12    1
     4    17    20    1
     5    17    18    1
     6    32    12    1
     7    40    20    1
     8    16    12    1
     9    12    13    1
    10    20    18    1
    11    20    15    1
    12    33    13    1
    13    38    18    1
    14    13     2    1
    15    25     5    1
    16    11    15    1
    17    11    31    1
    18    11     2    1
    19    11     3    1
    20    15    35    1
    21    15    19    1
    22    26     5    1
    23     2    14    1
    24     2     3    1
    25     5    24    1
    26     5     1    1
    27    19    14    1
    28    19     3    1
    29    19    39    1
    30    14     3    1
    31    14    34    1
    32    23     4    1
    33     1     4    1
    34     1     6    1
    35     4    22    1
    36     4    21    1
    37    30    10    1
    38     6    10    1
    39     6     7    1
    40    10     9    1
    41     7    27    1
    42     7     8    1
    43     9    29    1
    44     9     8    2
    45     8    28    1
    46     1     2    0
