@<TRIPOS>MOLECULE
3,6,7,8,9,10
 40 46 0 0 0
SMALL
GASTEIGER

@<TRIPOS>ATOM
      1 SI         -3.8844   17.4495    4.8502 Si      1  UNL1        0.0000
      2 C          -5.4209   18.2326    5.6723 C.3     1  UNL1        0.0000
      3 C          -6.4940   18.9473    4.6711 C.3     1  UNL1        0.0000
      4 C          -2.2783   18.2531    5.5075 C.3     1  UNL1        0.0000
      5 C          -3.8134   15.5739    5.2181 C.3     1  UNL1        0.0000
      6 C          -4.0898   17.7598    3.0119 C.3     1  UNL1        0.0000
      7 C          -3.6937   18.9186    2.2875 C.2     1  UNL1        0.0000
      8 C          -4.1173   18.7786    0.9553 C.2     1  UNL1        0.0000
      9 C          -4.7972   17.5453    0.8358 C.2     1  UNL1        0.0000
     10 C          -4.7803   16.9188    2.0951 C.2     1  UNL1        0.0000
     11 B          -5.5128   19.9324    5.6729 B       1  UNL1        0.0000
     12 B          -5.3132   19.0384    7.1827 B       1  UNL1        0.0000
     13 B          -6.1817   17.5128    7.0278 B       1  UNL1        0.0000
     14 B          -6.9216   17.4658    5.4210 B       1  UNL1        0.0000
     15 B          -7.2208   20.2941    5.4697 B       1  UNL1        0.0000
     16 B          -6.4768   20.3759    7.0845 B       1  UNL1        0.0000
     17 B          -6.9039   18.8557    7.9356 B       1  UNL1        0.0000
     18 B          -7.9082   17.8577    6.8391 B       1  UNL1        0.0000
     19 B          -8.0870   18.7731    5.3308 B       1  UNL1        0.0000
     20 B          -8.0947   19.6417    6.8761 B       1  UNL1        0.0000
     21 H          -1.4192   17.9011    4.9454 H       1  UNL1        0.0000
     22 H          -2.1144   17.9981    6.5490 H       1  UNL1        0.0000
     23 H          -2.2984   19.3357    5.4371 H       1  UNL1        0.0000
     24 H          -3.0292   15.1009    4.6356 H       1  UNL1        0.0000
     25 H          -4.7470   15.0714    4.9866 H       1  UNL1        0.0000
     26 H          -3.5975   15.3912    6.2653 H       1  UNL1        0.0000
     27 H          -3.0573   19.7087    2.6716 H       1  UNL1        0.0000
     28 H          -3.8560   19.4332    0.1322 H       1  UNL1        0.0000
     29 H          -5.1528   17.1078   -0.0910 H       1  UNL1        0.0000
     30 H          -5.0924   15.9014    2.3049 H       1  UNL1        0.0000
     31 H          -4.6278   20.5189    5.1440 H       1  UNL1        0.0000
     32 H          -4.2667   19.0549    7.7204 H       1  UNL1        0.0000
     33 H          -5.7033   16.5318    7.4677 H       1  UNL1        0.0000
     34 H          -6.9373   16.5069    4.7225 H       1  UNL1        0.0000
     35 H          -7.5376   21.2055    4.7838 H       1  UNL1        0.0000
     36 H          -6.3062   21.3932    7.6519 H       1  UNL1        0.0000
     37 H          -7.0280   18.8110    9.1056 H       1  UNL1        0.0000
     38 H          -8.7399   17.1234    7.2327 H       1  UNL1        0.0000
     39 H          -8.9845   18.6831    4.5713 H       1  UNL1        0.0000
     40 H          -9.0689   20.1547    7.2929 H       1  UNL1        0.0000
@<TRIPOS>BOND
     1    29     9    1
     2    28     8    1
     3     9     8    1
     4     9    10    2
     5     8     7    2
     6    10    30    1
     7    10     6    1
     8     7    27    1
     9     7     6    1
    10     6     1    1
    11    39    19    1
    12    24     5    1
    13     3    14    1
    14     3    15    1
    15     3     2    1
    16     3    11    1
    17    34    14    1
    18    35    15    1
    19     1     5    1
    20     1     4    1
    21    21     4    1
    22    25     5    1
    23    31    11    1
    24     5    26    1
    25    19    14    1
    26    19    15    1
    27    19    20    1
    28    14     2    1
    29    23     4    1
    30    15    11    1
    31     4    22    1
    32     2    11    1
    33     2    13    1
    34    18    38    1
    35    18    17    1
    36    20    16    1
    37    20    40    1
    38    20    17    1
    39    13    12    1
    40    13    33    1
    41    16    12    1
    42    16    36    1
    43    12    32    1
    44    12    17    1
    45    17    37    1
    46     1     2    0
