@<TRIPOS>MOLECULE
25,26,28,30,32,34
 56 58 0 0 0
SMALL
GASTEIGER

@<TRIPOS>ATOM
      1 SI         13.1748   -1.7151    0.3961 Si      1  UNL1        0.0000
      2 O          11.9890   -2.9833    3.0404 O.3     1  UNL1        0.0000
      3 O          12.2277   -3.0310    0.7321 O.3     1  UNL1        0.0000
      4 O          11.2249   -5.0975    3.0660 O.3     1  UNL1        0.0000
      5 C          11.3702   -3.1338    1.8049 C.3     1  UNL1        0.0000
      6 H          10.5996   -2.3521    1.7288 H       1  UNL1        0.0000
      7 C          10.7686   -4.5671    1.8429 C.3     1  UNL1        0.0000
      8 H          11.1786   -5.1331    0.9930 H       1  UNL1        0.0000
      9 C          12.2851   -4.2894    3.5412 C.3     1  UNL1        0.0000
     10 C          12.2666   -4.2540    5.0678 C.3     1  UNL1        0.0000
     11 H          11.2747   -3.9420    5.3968 H       1  UNL1        0.0000
     12 H          12.9896   -3.5025    5.3884 H       1  UNL1        0.0000
     13 C          12.6097   -5.6235    5.6459 C.3     1  UNL1        0.0000
     14 H          12.6220   -5.5599    6.7353 H       1  UNL1        0.0000
     15 H          11.8352   -6.3318    5.3520 H       1  UNL1        0.0000
     16 C          13.9599   -6.1076    5.1289 C.3     1  UNL1        0.0000
     17 H          14.7485   -5.4255    5.4573 H       1  UNL1        0.0000
     18 H          14.1764   -7.0960    5.5369 H       1  UNL1        0.0000
     19 C          13.9389   -6.1692    3.6056 C.3     1  UNL1        0.0000
     20 H          13.1610   -6.8654    3.2871 H       1  UNL1        0.0000
     21 H          14.8984   -6.5241    3.2245 H       1  UNL1        0.0000
     22 C          13.6395   -4.7905    3.0261 C.3     1  UNL1        0.0000
     23 H          14.4010   -4.0727    3.3338 H       1  UNL1        0.0000
     24 H          13.6187   -4.8200    1.9357 H       1  UNL1        0.0000
     25 C           9.2692   -4.5932    1.8372 C.3     1  UNL1        0.0000
     26 C           8.5801   -3.9934    2.9168 C.2     1  UNL1        0.0000
     27 H           9.1512   -3.4810    3.6814 H       1  UNL1        0.0000
     28 C           7.1892   -3.9959    2.9471 C.2     1  UNL1        0.0000
     29 H           6.6584   -3.4769    3.7362 H       1  UNL1        0.0000
     30 C           6.4649   -4.6024    1.8978 C.2     1  UNL1        0.0000
     31 H           5.3830   -4.5491    1.8930 H       1  UNL1        0.0000
     32 C           7.1408   -5.1841    0.8276 C.2     1  UNL1        0.0000
     33 H           6.5879   -5.5848   -0.0133 H       1  UNL1        0.0000
     34 C           8.5514   -5.1847    0.7984 C.3     1  UNL1        0.0000
     35 H           9.0736   -5.5811   -0.0647 H       1  UNL1        0.0000
     36 C          14.6139   -1.5240    1.6299 C.3     1  UNL1        0.0000
     37 H          14.2357   -1.4909    2.6475 H       1  UNL1        0.0000
     38 H          15.1718   -0.6100    1.4526 H       1  UNL1        0.0000
     39 H          15.3126   -2.3532    1.5656 H       1  UNL1        0.0000
     40 C          12.1095   -0.1325    0.4511 C.3     1  UNL1        0.0000
     41 H          11.8297    0.0994    1.4750 H       1  UNL1        0.0000
     42 H          11.1935   -0.2475   -0.1224 H       1  UNL1        0.0000
     43 H          12.6384    0.7287    0.0571 H       1  UNL1        0.0000
     44 C          14.4730   -3.5049   -1.3982 C.3     1  UNL1        0.0000
     45 H          14.7943   -3.7516   -2.4100 H       1  UNL1        0.0000
     46 H          13.7946   -4.2812   -1.0541 H       1  UNL1        0.0000
     47 H          15.3497   -3.5035   -0.7551 H       1  UNL1        0.0000
     48 C          14.7701   -1.0776   -1.8440 C.3     1  UNL1        0.0000
     49 H          15.1201   -1.2988   -2.8516 H       1  UNL1        0.0000
     50 H          15.6333   -1.0388   -1.1850 H       1  UNL1        0.0000
     51 H          14.3058   -0.0948   -1.8540 H       1  UNL1        0.0000
     52 C          12.6020   -2.1795   -2.3554 C.3     1  UNL1        0.0000
     53 H          12.9460   -2.4570   -3.3515 H       1  UNL1        0.0000
     54 H          12.1226   -1.2057   -2.4213 H       1  UNL1        0.0000
     55 H          11.8623   -2.9081   -2.0323 H       1  UNL1        0.0000
     56 C          13.7783   -2.1414   -1.3764 C.3     1  UNL1        0.0000
@<TRIPOS>BOND
     1    53    52    1
     2    49    48    1
     3    54    52    1
     4    45    44    1
     5    52    55    1
     6    52    56    1
     7    51    48    1
     8    48    56    1
     9    48    50    1
    10    44    56    1
    11    44    46    1
    12    44    47    1
    13    56     1    1
    14    42    40    1
    15    35    34    1
    16    33    32    1
    17    43    40    1
    18     1    40    1
    19     1     3    1
    20     1    36    1
    21    40    41    1
    22     3     5    1
    23    34    32    1
    24    34    25    1
    25    32    30    2
    26     8     7    1
    27    38    36    1
    28    39    36    1
    29    36    37    1
    30     6     5    1
    31     5     7    1
    32     5     2    1
    33    25     7    1
    34    25    26    1
    35     7     4    1
    36    31    30    1
    37    30    28    1
    38    24    22    1
    39    26    28    2
    40    26    27    1
    41    28    29    1
    42    22    23    1
    43    22     9    1
    44    22    19    1
    45     2     9    1
    46     4     9    1
    47    21    19    1
    48    20    19    1
    49     9    10    1
    50    19    16    1
    51    10    12    1
    52    10    11    1
    53    10    13    1
    54    16    17    1
    55    16    18    1
    56    16    13    1
    57    15    13    1
    58    13    14    1
