@<TRIPOS>MOLECULE
1,2,3,4,5,6
 68 70 0 0 0
SMALL
GASTEIGER

@<TRIPOS>ATOM
      1 C           2.2383    7.7514    2.6410 C.2     1  UNL1        0.0000
      2 C           3.3691    6.9700    2.3117 C.3     1  UNL1        0.0000
      3 C           3.2101    5.6323    1.9379 C.3     1  UNL1        0.0000
      4 C           1.9193    5.0657    1.8659 C.2     1  UNL1        0.0000
      5 C           0.7891    5.8507    2.1471 C.2     1  UNL1        0.0000
      6 C           0.9491    7.1926    2.5910 C.2     1  UNL1        0.0000
      7 C           4.7683    7.5115    2.3338 C.3     1  UNL1        0.0000
      8 C           5.5445    6.9882    1.1443 C.2     1  UNL1        0.0000
      9 C           6.3755    8.0114    0.4386 C.3     1  UNL1        0.0000
     10 C           5.4076    5.7070    0.8099 C.2     1  UNL1        0.0000
     11 C           4.4514    4.8517    1.6142 C.3     1  UNL1        0.0000
     12 C           6.0928    5.0021   -0.3175 C.3     1  UNL1        0.0000
     13 C          -0.2178    7.9243    3.1419 C.ar    1  UNL1        0.0000
     14 C          -0.7677    9.0663    2.5518 C.ar    1  UNL1        0.0000
     15 C          -1.8617    9.6651    3.1664 C.ar    1  UNL1        0.0000
     16 C          -2.4063    9.1622    4.3336 C.ar    1  UNL1        0.0000
     17 C          -1.8552    8.0350    4.9175 C.ar    1  UNL1        0.0000
     18 C          -0.7688    7.4257    4.3208 C.ar    1  UNL1        0.0000
     19 C          -0.2258    9.6309    1.2792 C.3     1  UNL1        0.0000
     20 C           4.0419    8.9318    5.4372 C.3     1  UNL1        0.0000
     21 C           1.1656   10.0172    5.4888 C.3     1  UNL1        0.0000
     22 C           3.3315   11.5611    3.7747 C.3     1  UNL1        0.0000
     23 C           4.4497   11.4192    2.7381 C.3     1  UNL1        0.0000
     24 C           3.8632   12.3685    4.9604 C.3     1  UNL1        0.0000
     25 C           2.1810   12.3411    3.1333 C.3     1  UNL1        0.0000
     26 C          -0.5825    5.2461    2.0375 C.3     1  UNL1        0.0000
     27 C           1.7871    2.8197    2.5455 C.3     1  UNL1        0.0000
     28 O           1.7709    3.7406    1.4731 O.2     1  UNL1        0.0000
     29 O           2.4034    9.0486    3.0043 O.2     1  UNL1        0.0000
     30 SI          2.7218    9.8495    4.4024 Si      1  UNL1        0.0000
     31 H           5.2695    7.1866    3.2561 H       1  UNL1        0.0000
     32 H           4.7479    8.6000    2.3262 H       1  UNL1        0.0000
     33 H           7.0445    7.5665   -0.2900 H       1  UNL1        0.0000
     34 H           6.9661    8.5811    1.1555 H       1  UNL1        0.0000
     35 H           5.7181    8.7058   -0.0847 H       1  UNL1        0.0000
     36 H           4.9417    4.5430    2.5489 H       1  UNL1        0.0000
     37 H           4.1880    3.9535    1.0533 H       1  UNL1        0.0000
     38 H           6.9642    5.5458   -0.6680 H       1  UNL1        0.0000
     39 H           5.4032    4.8878   -1.1530 H       1  UNL1        0.0000
     40 H           6.4089    4.0086   -0.0015 H       1  UNL1        0.0000
     41 H          -2.2952   10.5463    2.7154 H       1  UNL1        0.0000
     42 H          -3.2561    9.6492    4.7881 H       1  UNL1        0.0000
     43 H          -2.2657    7.6356    5.8329 H       1  UNL1        0.0000
     44 H          -0.3245    6.5528    4.7811 H       1  UNL1        0.0000
     45 H          -0.7594   10.5374    1.0066 H       1  UNL1        0.0000
     46 H          -0.3214    8.9102    0.4662 H       1  UNL1        0.0000
     47 H           0.8314    9.8642    1.3799 H       1  UNL1        0.0000
     48 H           3.8173    7.8694    5.4935 H       1  UNL1        0.0000
     49 H           4.0715    9.3090    6.4541 H       1  UNL1        0.0000
     50 H           5.0411    9.0341    5.0250 H       1  UNL1        0.0000
     51 H           0.8827    9.0682    5.9352 H       1  UNL1        0.0000
     52 H           0.3122   10.3688    4.9174 H       1  UNL1        0.0000
     53 H           1.3316   10.7188    6.2998 H       1  UNL1        0.0000
     54 H           4.7832   12.4025    2.4077 H       1  UNL1        0.0000
     55 H           4.0968   10.8741    1.8656 H       1  UNL1        0.0000
     56 H           5.3084   10.8983    3.1577 H       1  UNL1        0.0000
     57 H           4.2010   13.3500    4.6303 H       1  UNL1        0.0000
     58 H           4.7016   11.8623    5.4326 H       1  UNL1        0.0000
     59 H           3.0877   12.5124    5.7087 H       1  UNL1        0.0000
     60 H           2.5293   13.3179    2.7986 H       1  UNL1        0.0000
     61 H           1.3710   12.4936    3.8424 H       1  UNL1        0.0000
     62 H           1.7896   11.8077    2.2714 H       1  UNL1        0.0000
     63 H          -0.9307    4.8693    3.0009 H       1  UNL1        0.0000
     64 H          -0.5606    4.4191    1.3302 H       1  UNL1        0.0000
     65 H          -1.2986    5.9888    1.6914 H       1  UNL1        0.0000
     66 H           1.6744    1.8336    2.0997 H       1  UNL1        0.0000
     67 H           0.9609    2.9999    3.2422 H       1  UNL1        0.0000
     68 H           2.7327    2.8638    3.0979 H       1  UNL1        0.0000
@<TRIPOS>BOND
     1    39    12    1
     2    38    12    1
     3    12    40    1
     4    12    10    1
     5    33     9    1
     6    35     9    1
     7     9     8    1
     8     9    34    1
     9    46    19    1
    10    10     8    2
    11    10    11    1
    12    45    19    1
    13    37    11    1
    14     8     7    1
    15    19    47    1
    16    19    14    1
    17    64    26    1
    18    28     4    1
    19    28    27    1
    20    11     3    1
    21    11    36    1
    22    65    26    1
    23    55    23    1
    24     4     3    1
    25     4     5    2
    26     3     2    1
    27    26     5    1
    28    26    63    1
    29    66    27    1
    30     5     6    1
    31    62    25    1
    32     2     7    1
    33     2     1    1
    34    32     7    1
    35     7    31    1
    36    54    23    1
    37    27    68    1
    38    27    67    1
    39    14    13   ar
    40    14    15   ar
    41     6     1    2
    42     6    13    1
    43     1    29    1
    44    41    15    1
    45    23    56    1
    46    23    22    1
    47    60    25    1
    48    29    30    1
    49    25    22    1
    50    25    61    1
    51    13    18   ar
    52    15    16   ar
    53    22    30    1
    54    22    24    1
    55    18    44    1
    56    18    17   ar
    57    16    42    1
    58    16    17   ar
    59    30    20    1
    60    30    21    1
    61    57    24    1
    62    52    21    1
    63    17    43    1
    64    24    58    1
    65    24    59    1
    66    50    20    1
    67    20    48    1
    68    20    49    1
    69    21    51    1
    70    21    53    1
