@<TRIPOS>MOLECULE
6,7,8,9,10,11
 67 69 0 0 0
SMALL
GASTEIGER

@<TRIPOS>ATOM
      1 SI          2.4232   12.4113    1.5091 Si      1  UNL1        0.0000
      2 O           1.7240   18.7815    4.0985 O.2     1  UNL1        0.0000
      3 O           1.6189   13.5122    2.4129 O.3     1  UNL1        0.0000
      4 O           3.2084   16.2623    0.5197 O.2     1  UNL1        0.0000
      5 O           2.7992   16.9422   -1.5753 O.3     1  UNL1        0.0000
      6 C           2.3185   16.4643    4.4586 C.2     1  UNL1        0.0000
      7 C           1.6707   17.4604    3.6879 C.2     1  UNL1        0.0000
      8 C           1.0392   17.1334    2.4757 C.2     1  UNL1        0.0000
      9 C           1.0629   15.7955    2.0240 C.3     1  UNL1        0.0000
     10 C           1.6813   14.8031    2.8044 C.3     1  UNL1        0.0000
     11 C           2.3403   15.1361    4.0111 C.2     1  UNL1        0.0000
     12 C           3.0506   14.0588    4.7830 C.3     1  UNL1        0.0000
     13 C           3.2806   14.4698    6.2321 C.3     1  UNL1        0.0000
     14 C           3.9776   15.8247    6.2527 C.3     1  UNL1        0.0000
     15 C           3.0234   16.8889    5.7229 C.3     1  UNL1        0.0000
     16 C           0.6512   19.2034    4.9263 C.3     1  UNL1        0.0000
     17 C           0.4241   18.2058    1.6216 C.3     1  UNL1        0.0000
     18 C          -0.7912   14.8173    0.6873 C.ar    1  UNL1        0.0000
     19 C          -1.3881   14.5272   -0.5268 C.ar    1  UNL1        0.0000
     20 C          -0.7621   14.8745   -1.7152 C.ar    1  UNL1        0.0000
     21 C           0.4749   15.4891   -1.6900 C.ar    1  UNL1        0.0000
     22 C           1.0947   15.7640   -0.4735 C.ar    1  UNL1        0.0000
     23 C           0.4490   15.4418    0.7280 C.ar    1  UNL1        0.0000
     24 C           2.4598   16.3356   -0.4285 C.2     1  UNL1        0.0000
     25 C           4.1056   17.4946   -1.6230 C.3     1  UNL1        0.0000
     26 C           4.2818   12.3240    1.9431 C.3     1  UNL1        0.0000
     27 C           2.3235   12.7390   -0.3667 C.3     1  UNL1        0.0000
     28 C           1.4552   10.8169    1.9782 C.3     1  UNL1        0.0000
     29 C           1.4261   10.6091    3.4946 C.3     1  UNL1        0.0000
     30 C           2.1193    9.6007    1.3314 C.3     1  UNL1        0.0000
     31 C           0.0086   10.9102    1.4846 C.3     1  UNL1        0.0000
     32 H           4.0165   13.8644    4.3053 H       1  UNL1        0.0000
     33 H           2.4680   13.1375    4.7316 H       1  UNL1        0.0000
     34 H           2.3217   14.5411    6.7514 H       1  UNL1        0.0000
     35 H           3.8880   13.7169    6.7362 H       1  UNL1        0.0000
     36 H           4.8739   15.7807    5.6293 H       1  UNL1        0.0000
     37 H           4.2859   16.0869    7.2659 H       1  UNL1        0.0000
     38 H           2.2699   17.0948    6.4902 H       1  UNL1        0.0000
     39 H           3.5538   17.8259    5.5313 H       1  UNL1        0.0000
     40 H           0.7995   20.2706    5.0818 H       1  UNL1        0.0000
     41 H           0.6618   18.6884    5.8908 H       1  UNL1        0.0000
     42 H          -0.3169   19.0264    4.4471 H       1  UNL1        0.0000
     43 H           0.9168   18.2465    0.6498 H       1  UNL1        0.0000
     44 H           0.5337   19.1770    2.0978 H       1  UNL1        0.0000
     45 H          -0.6339   18.0049    1.4521 H       1  UNL1        0.0000
     46 H          -1.2835   14.5721    1.6187 H       1  UNL1        0.0000
     47 H          -2.3487   14.0353   -0.5459 H       1  UNL1        0.0000
     48 H          -1.2361   14.6585   -2.6607 H       1  UNL1        0.0000
     49 H           0.9805   15.7464   -2.6075 H       1  UNL1        0.0000
     50 H           4.1741   18.0329   -2.5647 H       1  UNL1        0.0000
     51 H           4.8546   16.7009   -1.5802 H       1  UNL1        0.0000
     52 H           4.2633   18.1704   -0.7798 H       1  UNL1        0.0000
     53 H           4.7300   13.3131    1.8925 H       1  UNL1        0.0000
     54 H           4.8147   11.6927    1.2391 H       1  UNL1        0.0000
     55 H           4.4632   11.9250    2.9367 H       1  UNL1        0.0000
     56 H           2.9003   13.6169   -0.6409 H       1  UNL1        0.0000
     57 H           1.3034   12.8970   -0.7020 H       1  UNL1        0.0000
     58 H           2.7278   11.9012   -0.9257 H       1  UNL1        0.0000
     59 H           0.9029    9.6850    3.7376 H       1  UNL1        0.0000
     60 H           0.9018   11.4283    3.9800 H       1  UNL1        0.0000
     61 H           2.4332   10.5435    3.9015 H       1  UNL1        0.0000
     62 H           1.5720    8.6920    1.5791 H       1  UNL1        0.0000
     63 H           3.1424    9.4865    1.6811 H       1  UNL1        0.0000
     64 H           2.1381    9.6992    0.2489 H       1  UNL1        0.0000
     65 H          -0.5413   10.0102    1.7577 H       1  UNL1        0.0000
     66 H          -0.0287   11.0164    0.4029 H       1  UNL1        0.0000
     67 H          -0.4916   11.7638    1.9345 H       1  UNL1        0.0000
@<TRIPOS>BOND
     1    48    20    1
     2    49    21    1
     3    50    25    1
     4    20    21   ar
     5    20    19   ar
     6    21    22   ar
     7    25    51    1
     8    25     5    1
     9    25    52    1
    10     5    24    1
    11    58    27    1
    12    57    27    1
    13    56    27    1
    14    47    19    1
    15    19    18   ar
    16    22    24    1
    17    22    23   ar
    18    24     4    2
    19    27     1    1
    20    64    30    1
    21    66    31    1
    22    43    17    1
    23    18    23   ar
    24    18    46    1
    25    23     9    1
    26    54    26    1
    27    30    62    1
    28    30    63    1
    29    30    28    1
    30    45    17    1
    31    31    65    1
    32    31    67    1
    33    31    28    1
    34     1    26    1
    35     1    28    1
    36     1     3    1
    37    17    44    1
    38    17     8    1
    39    53    26    1
    40    26    55    1
    41    28    29    1
    42     9     8    1
    43     9    10    1
    44     3    10    1
    45     8     7    2
    46    10    11    1
    47    29    59    1
    48    29    61    1
    49    29    60    1
    50     7     2    1
    51     7     6    1
    52    11     6    2
    53    11    12    1
    54     2    16    1
    55    32    12    1
    56    42    16    1
    57     6    15    1
    58    33    12    1
    59    12    13    1
    60    16    40    1
    61    16    41    1
    62    39    15    1
    63    36    14    1
    64    15    14    1
    65    15    38    1
    66    13    14    1
    67    13    35    1
    68    13    34    1
    69    14    37    1
