@<TRIPOS>MOLECULE
6,7,8,9,10,11
 83 85 0 0 0
SMALL
GASTEIGER

@<TRIPOS>ATOM
      1 SI          3.6520    8.5038   13.3766 Si      1  UNL1        0.0000
      2 SI          0.2652    6.5228    9.6926 Si      1  UNL1        0.0000
      3 O           7.1549    6.8929    8.9765 O.2     1  UNL1        0.0000
      4 O           3.4061    8.6815   11.7675 O.3     1  UNL1        0.0000
      5 O           1.6264    6.7444    8.8163 O.3     1  UNL1        0.0000
      6 C           5.1109    5.6489    8.6271 C.2     1  UNL1        0.0000
      7 C           5.7723    6.8718    8.9004 C.2     1  UNL1        0.0000
      8 C           5.0397    8.0406    9.1719 C.2     1  UNL1        0.0000
      9 C           3.6282    7.9869    9.1771 C.3     1  UNL1        0.0000
     10 C           2.9735    6.7752    8.8906 C.3     1  UNL1        0.0000
     11 C           3.7101    5.5927    8.6386 C.2     1  UNL1        0.0000
     12 C           2.9715    4.3057    8.3942 C.3     1  UNL1        0.0000
     13 C           3.8578    3.2780    7.7014 C.3     1  UNL1        0.0000
     14 C           5.1489    3.1273    8.4968 C.3     1  UNL1        0.0000
     15 C           5.9536    4.4187    8.4004 C.3     1  UNL1        0.0000
     16 C           7.8239    7.2113    7.7664 C.3     1  UNL1        0.0000
     17 C           5.7442    9.3157    9.5393 C.3     1  UNL1        0.0000
     18 C           2.2006    9.9778    8.6196 C.ar    1  UNL1        0.0000
     19 C           1.5053   11.1041    9.0267 C.ar    1  UNL1        0.0000
     20 C           1.4701   11.4488   10.3673 C.ar    1  UNL1        0.0000
     21 C           2.1100   10.6642   11.3122 C.ar    1  UNL1        0.0000
     22 C           2.7876    9.5242   10.9122 C.ar    1  UNL1        0.0000
     23 C           2.8484    9.1868    9.5542 C.ar    1  UNL1        0.0000
     24 C           2.0325    8.4916   14.3870 C.3     1  UNL1        0.0000
     25 C           4.7828    9.8939   14.0303 C.3     1  UNL1        0.0000
     26 C           4.5047    6.7801   13.3956 C.3     1  UNL1        0.0000
     27 C           4.6620    6.2976   14.8378 C.3     1  UNL1        0.0000
     28 C           5.8913    6.8494   12.7512 C.3     1  UNL1        0.0000
     29 C           3.6668    5.7577   12.6220 C.3     1  UNL1        0.0000
     30 C           0.2058    4.8002   10.5226 C.3     1  UNL1        0.0000
     31 C           0.0431    7.8026   11.0854 C.3     1  UNL1        0.0000
     32 C          -1.0633    6.7188    8.3178 C.3     1  UNL1        0.0000
     33 C          -0.9735    8.1098    7.6842 C.3     1  UNL1        0.0000
     34 C          -0.8692    5.6798    7.2100 C.3     1  UNL1        0.0000
     35 C          -2.4580    6.5400    8.9194 C.3     1  UNL1        0.0000
     36 H           2.0808    4.5120    7.7974 H       1  UNL1        0.0000
     37 H           2.6359    3.9034    9.3563 H       1  UNL1        0.0000
     38 H           3.3330    2.3239    7.6354 H       1  UNL1        0.0000
     39 H           4.0876    3.6142    6.6874 H       1  UNL1        0.0000
     40 H           5.7461    2.2991    8.1128 H       1  UNL1        0.0000
     41 H           4.9081    2.9118    9.5408 H       1  UNL1        0.0000
     42 H           6.7763    4.4192    9.1211 H       1  UNL1        0.0000
     43 H           6.3990    4.4793    7.4022 H       1  UNL1        0.0000
     44 H           8.8827    7.2530    8.0158 H       1  UNL1        0.0000
     45 H           7.4951    8.1773    7.3705 H       1  UNL1        0.0000
     46 H           7.6570    6.4465    7.0028 H       1  UNL1        0.0000
     47 H           5.4110    9.6602   10.5174 H       1  UNL1        0.0000
     48 H           5.5232   10.0987    8.8139 H       1  UNL1        0.0000
     49 H           6.8192    9.1562    9.5789 H       1  UNL1        0.0000
     50 H           2.2588    9.7066    7.5745 H       1  UNL1        0.0000
     51 H           0.9993   11.7158    8.2964 H       1  UNL1        0.0000
     52 H           0.9395   12.3339   10.6849 H       1  UNL1        0.0000
     53 H           2.0868   10.9201   12.3597 H       1  UNL1        0.0000
     54 H           1.4007    9.3407   14.1433 H       1  UNL1        0.0000
     55 H           2.2369    8.5352   15.4520 H       1  UNL1        0.0000
     56 H           1.4468    7.5947   14.2056 H       1  UNL1        0.0000
     57 H           4.2640   10.8482   14.0537 H       1  UNL1        0.0000
     58 H           5.6619   10.0193   13.4044 H       1  UNL1        0.0000
     59 H           5.1257    9.6889   15.0389 H       1  UNL1        0.0000
     60 H           5.1522    5.3249   14.8643 H       1  UNL1        0.0000
     61 H           3.6943    6.2031   15.3243 H       1  UNL1        0.0000
     62 H           5.2655    6.9956   15.4130 H       1  UNL1        0.0000
     63 H           6.3633    5.8670   12.7596 H       1  UNL1        0.0000
     64 H           6.5366    7.5374   13.2920 H       1  UNL1        0.0000
     65 H           5.8227    7.1805   11.7182 H       1  UNL1        0.0000
     66 H           4.1634    4.7870   12.6166 H       1  UNL1        0.0000
     67 H           3.5291    6.0781   11.5908 H       1  UNL1        0.0000
     68 H           2.6854    5.6346   13.0761 H       1  UNL1        0.0000
     69 H           1.0584    4.6468   11.1790 H       1  UNL1        0.0000
     70 H           0.1955    3.9909    9.7988 H       1  UNL1        0.0000
     71 H          -0.6876    4.6994   11.1307 H       1  UNL1        0.0000
     72 H           0.8723    7.7683   11.7843 H       1  UNL1        0.0000
     73 H          -0.8647    7.6109   11.6483 H       1  UNL1        0.0000
     74 H          -0.0153    8.8156   10.6996 H       1  UNL1        0.0000
     75 H          -1.7357    8.2226    6.9142 H       1  UNL1        0.0000
     76 H          -0.0004    8.2534    7.2227 H       1  UNL1        0.0000
     77 H          -1.1216    8.8902    8.4274 H       1  UNL1        0.0000
     78 H          -1.6363    5.7975    6.4457 H       1  UNL1        0.0000
     79 H          -0.9378    4.6679    7.6039 H       1  UNL1        0.0000
     80 H           0.0999    5.8074    6.7344 H       1  UNL1        0.0000
     81 H          -3.2212    6.6547    8.1508 H       1  UNL1        0.0000
     82 H          -2.6429    7.2809    9.6933 H       1  UNL1        0.0000
     83 H          -2.5665    5.5517    9.3596 H       1  UNL1        0.0000
@<TRIPOS>BOND
     1    78    34    1
     2    39    13    1
     3    80    34    1
     4    75    33    1
     5    46    16    1
     6    34    79    1
     7    34    32    1
     8    76    33    1
     9    45    16    1
    10    43    15    1
    11    50    18    1
    12    38    13    1
    13    33    32    1
    14    33    77    1
    15    13    12    1
    16    13    14    1
    17    16    44    1
    18    16     3    1
    19    36    12    1
    20    40    14    1
    21    81    35    1
    22    51    19    1
    23    32    35    1
    24    32     2    1
    25    12    11    1
    26    12    37    1
    27    15    14    1
    28    15     6    1
    29    15    42    1
    30    14    41    1
    31    18    19   ar
    32    18    23   ar
    33     6    11    2
    34     6     7    1
    35    11    10    1
    36    48    17    1
    37     5    10    1
    38     5     2    1
    39    10     9    1
    40     7     3    1
    41     7     8    2
    42    35    83    1
    43    35    82    1
    44    19    20   ar
    45     8     9    1
    46     8    17    1
    47     9    23    1
    48    17    49    1
    49    17    47    1
    50    23    22   ar
    51     2    30    1
    52     2    31    1
    53    70    30    1
    54    20    52    1
    55    20    21   ar
    56    30    71    1
    57    30    69    1
    58    74    31    1
    59    22    21   ar
    60    22     4    1
    61    31    73    1
    62    31    72    1
    63    21    53    1
    64    67    29    1
    65    65    28    1
    66     4     1    1
    67    66    29    1
    68    29    68    1
    69    29    26    1
    70    28    63    1
    71    28    64    1
    72    28    26    1
    73     1    26    1
    74     1    25    1
    75     1    24    1
    76    26    27    1
    77    58    25    1
    78    25    57    1
    79    25    59    1
    80    54    24    1
    81    56    24    1
    82    24    55    1
    83    27    60    1
    84    27    61    1
    85    27    62    1
