@<TRIPOS>MOLECULE
1,2,3,5,7,9
 47 49 0 0 0
SMALL
GASTEIGER

@<TRIPOS>ATOM
      1 C           6.7907   13.7180    3.5132 C.3     1  UNL1        0.0000
      2 C           5.5758   13.3269    4.1368 C.2     1  UNL1        0.0000
      3 C           5.6669   12.5013    5.2626 C.2     1  UNL1        0.0000
      4 H           4.7640   12.2134    5.7847 H       1  UNL1        0.0000
      5 C           6.9073   12.0887    5.7894 C.2     1  UNL1        0.0000
      6 H           6.9341   11.4976    6.6979 H       1  UNL1        0.0000
      7 C           8.0922   12.5458    5.2176 C.2     1  UNL1        0.0000
      8 H           9.0509   12.3191    5.6692 H       1  UNL1        0.0000
      9 C           8.0265   13.3329    4.0560 C.3     1  UNL1        0.0000
     10 H           8.9468   13.7081    3.6198 H       1  UNL1        0.0000
     11 P           6.8154   14.6186    1.9344 P.3     1  UNL1        0.0000
     12 O           5.6461   14.3854    1.0791 O.2     1  UNL1        0.0000
     13 C           7.0940   16.3756    2.3472 C.ar    1  UNL1        0.0000
     14 C           7.5980   16.8098    3.5649 C.ar    1  UNL1        0.0000
     15 H           7.8326   16.0952    4.3424 H       1  UNL1        0.0000
     16 C           7.7922   18.1621    3.7865 C.ar    1  UNL1        0.0000
     17 H           8.1820   18.5014    4.7354 H       1  UNL1        0.0000
     18 C           7.4863   19.0800    2.7950 C.ar    1  UNL1        0.0000
     19 H           7.6386   20.1342    2.9732 H       1  UNL1        0.0000
     20 C           6.9826   18.6483    1.5782 C.ar    1  UNL1        0.0000
     21 H           6.7421   19.3650    0.8070 H       1  UNL1        0.0000
     22 C           6.7880   17.2977    1.3556 C.ar    1  UNL1        0.0000
     23 H           6.3878   16.9352    0.4191 H       1  UNL1        0.0000
     24 C           8.3674   14.0914    1.1363 C.ar    1  UNL1        0.0000
     25 C           9.5823   14.7405    1.3157 C.ar    1  UNL1        0.0000
     26 H           9.6412   15.6197    1.9441 H       1  UNL1        0.0000
     27 C          10.7150   14.2614    0.6813 C.ar    1  UNL1        0.0000
     28 H          11.6611   14.7640    0.8210 H       1  UNL1        0.0000
     29 C          10.6366   13.1409   -0.1299 C.ar    1  UNL1        0.0000
     30 H          11.5255   12.7681   -0.6166 H       1  UNL1        0.0000
     31 C           9.4213   12.5043   -0.3236 C.ar    1  UNL1        0.0000
     32 H           9.3585   11.6353   -0.9598 H       1  UNL1        0.0000
     33 C           8.2867   12.9811    0.3068 C.ar    1  UNL1        0.0000
     34 H           7.3268   12.5101    0.1576 H       1  UNL1        0.0000
     35 SI          3.8637   13.9879    3.6086 Si      1  UNL1        0.0000
     36 C           3.9576   15.8726    3.3228 C.3     1  UNL1        0.0000
     37 H           2.9759   16.3201    3.4460 H       1  UNL1        0.0000
     38 H           4.2964   16.0953    2.3184 H       1  UNL1        0.0000
     39 H           4.6321   16.3660    4.0192 H       1  UNL1        0.0000
     40 C           3.1206   12.9561    2.1966 C.3     1  UNL1        0.0000
     41 H           2.0807   13.2239    2.0354 H       1  UNL1        0.0000
     42 H           3.1625   11.8926    2.4195 H       1  UNL1        0.0000
     43 H           3.6575   13.1205    1.2697 H       1  UNL1        0.0000
     44 C           2.7336   13.7595    5.1381 C.3     1  UNL1        0.0000
     45 H           1.7859   14.2555    4.9599 H       1  UNL1        0.0000
     46 H           3.1535   14.1854    6.0442 H       1  UNL1        0.0000
     47 H           2.5117   12.7147    5.3279 H       1  UNL1        0.0000
@<TRIPOS>BOND
     1    32    31    1
     2    30    29    1
     3    31    29   ar
     4    31    33   ar
     5    29    27   ar
     6    34    33    1
     7    33    24   ar
     8    23    22    1
     9    27    28    1
    10    27    25   ar
    11    21    20    1
    12    12    11    2
    13    24    25   ar
    14    24    11    1
    15    43    40    1
    16    25    26    1
    17    22    20   ar
    18    22    13   ar
    19    20    18   ar
    20    11    13    1
    21    11     1    1
    22    41    40    1
    23    40    42    1
    24    40    35    1
    25    38    36    1
    26    13    14   ar
    27    18    19    1
    28    18    16   ar
    29    36    37    1
    30    36    35    1
    31    36    39    1
    32     1     9    1
    33     1     2    1
    34    14    16   ar
    35    14    15    1
    36    35     2    1
    37    35    44    1
    38    10     9    1
    39    16    17    1
    40     9     7    1
    41     2     3    2
    42    45    44    1
    43    44    47    1
    44    44    46    1
    45     7     8    1
    46     7     5    2
    47     3     4    1
    48     3     5    1
    49     5     6    1
