@<TRIPOS>MOLECULE
20,21,22,23,24,25
 70 74 0 0 0
SMALL
GASTEIGER

@<TRIPOS>ATOM
      1 SI          2.9124    9.4460    6.2710 Si      1  UNL1        0.0000
      2 O           1.1669    7.1857    0.1079 O.3     1  UNL1        0.0000
      3 O           3.3420    8.4041    5.0614 O.2     1  UNL1        0.0000
      4 C           3.2432   12.6497   -2.5690 C.ar    1  UNL1        0.0000
      5 H           2.6282   12.6369   -3.4571 H       1  UNL1        0.0000
      6 C           4.2527   13.5790   -2.4326 C.ar    1  UNL1        0.0000
      7 H           4.4343   14.2966   -3.2194 H       1  UNL1        0.0000
      8 C           5.0352   13.6031   -1.2885 C.ar    1  UNL1        0.0000
      9 H           5.8224   14.3365   -1.1879 H       1  UNL1        0.0000
     10 C           4.8210   12.6925   -0.2568 C.ar    1  UNL1        0.0000
     11 C           3.7958   11.7211   -0.3908 C.ar    1  UNL1        0.0000
     12 C           3.5685   10.7709    0.6354 C.ar    1  UNL1        0.0000
     13 C           5.6062   12.7071    0.9359 C.ar    1  UNL1        0.0000
     14 H           6.3861   13.4501    1.0223 H       1  UNL1        0.0000
     15 C           5.3725   11.8287    1.9348 C.ar    1  UNL1        0.0000
     16 H           5.9568   11.8515    2.8435 H       1  UNL1        0.0000
     17 C           4.3443   10.8446    1.8303 C.ar    1  UNL1        0.0000
     18 C           4.0541    9.9884    2.8750 C.ar    1  UNL1        0.0000
     19 H           4.6016   10.0636    3.8013 H       1  UNL1        0.0000
     20 C           3.0814    8.9870    2.7523 C.ar    1  UNL1        0.0000
     21 C           2.7647    8.1353    3.8659 C.2     1  UNL1        0.0000
     22 C           2.0125    6.9692    3.7049 C.2     1  UNL1        0.0000
     23 C           1.4848    6.6602    2.4160 C.3     1  UNL1        0.0000
     24 C           1.6661    7.5572    1.3513 C.3     1  UNL1        0.0000
     25 C           2.4230    8.7712    1.4994 C.ar    1  UNL1        0.0000
     26 C           2.5879    9.7650    0.4756 C.ar    1  UNL1        0.0000
     27 C           1.7623    9.8218   -0.6808 C.ar    1  UNL1        0.0000
     28 H           0.9355    9.1363   -0.7664 H       1  UNL1        0.0000
     29 C           1.9558   10.7533   -1.6498 C.ar    1  UNL1        0.0000
     30 H           1.3007   10.7850   -2.5081 H       1  UNL1        0.0000
     31 C           2.9989   11.7098   -1.5607 C.ar    1  UNL1        0.0000
     32 C           1.9315    6.0158    4.8701 C.3     1  UNL1        0.0000
     33 H           1.1370    5.2858    4.7231 H       1  UNL1        0.0000
     34 H           1.7064    6.5811    5.7753 H       1  UNL1        0.0000
     35 C           3.2706    5.2986    5.0718 C.3     1  UNL1        0.0000
     36 H           3.5583    4.7403    4.1834 H       1  UNL1        0.0000
     37 H           3.2045    4.6078    5.9091 H       1  UNL1        0.0000
     38 H           4.0526    6.0241    5.2803 H       1  UNL1        0.0000
     39 C           0.6930    5.3991    2.1572 C.3     1  UNL1        0.0000
     40 H           0.1317    5.5445    1.2324 H       1  UNL1        0.0000
     41 H          -0.0357    5.2539    2.9579 H       1  UNL1        0.0000
     42 C           1.5519    4.1389    2.0192 C.3     1  UNL1        0.0000
     43 H           2.3571    4.2919    1.3030 H       1  UNL1        0.0000
     44 H           0.9367    3.3146    1.6661 H       1  UNL1        0.0000
     45 H           1.9907    3.8485    2.9690 H       1  UNL1        0.0000
     46 C           2.1493    6.6948   -0.7849 C.3     1  UNL1        0.0000
     47 H           2.9127    7.4491   -1.0024 H       1  UNL1        0.0000
     48 H           1.6222    6.4397   -1.7019 H       1  UNL1        0.0000
     49 H           2.6361    5.7996   -0.3839 H       1  UNL1        0.0000
     50 C           1.1981    8.9878    6.9654 C.3     1  UNL1        0.0000
     51 H           0.4966    8.7920    6.1555 H       1  UNL1        0.0000
     52 H           0.7860    9.8004    7.5536 H       1  UNL1        0.0000
     53 H           1.2234    8.1097    7.6045 H       1  UNL1        0.0000
     54 C           2.8813   11.2603    5.6804 C.3     1  UNL1        0.0000
     55 H           3.8747   11.6900    5.5847 H       1  UNL1        0.0000
     56 H           2.3287   11.8812    6.3775 H       1  UNL1        0.0000
     57 H           2.3914   11.3518    4.7148 H       1  UNL1        0.0000
     58 C           4.3311    9.1596    7.5379 C.3     1  UNL1        0.0000
     59 C           5.7006    9.3598    6.8837 C.3     1  UNL1        0.0000
     60 H           5.8038   10.3723    6.4998 H       1  UNL1        0.0000
     61 H           5.8379    8.6619    6.0612 H       1  UNL1        0.0000
     62 H           6.4962    9.1928    7.6093 H       1  UNL1        0.0000
     63 C           4.1765   10.1694    8.6746 C.3     1  UNL1        0.0000
     64 H           3.2157   10.0473    9.1677 H       1  UNL1        0.0000
     65 H           4.2385   11.1878    8.3010 H       1  UNL1        0.0000
     66 H           4.9611   10.0306    9.4176 H       1  UNL1        0.0000
     67 C           4.2820    7.7514    8.1345 C.3     1  UNL1        0.0000
     68 H           5.0996    7.6125    8.8416 H       1  UNL1        0.0000
     69 H           4.3746    6.9984    7.3571 H       1  UNL1        0.0000
     70 H           3.3475    7.5875    8.6650 H       1  UNL1        0.0000
@<TRIPOS>BOND
     1     5     4    1
     2     7     6    1
     3     4     6   ar
     4     4    31   ar
     5    30    29    1
     6     6     8   ar
     7    48    46    1
     8    29    31   ar
     9    29    27   ar
    10    31    11   ar
    11     8     9    1
    12     8    10   ar
    13    47    46    1
    14    46    49    1
    15    46     2    1
    16    28    27    1
    17    27    26   ar
    18    11    10   ar
    19    11    12   ar
    20    10    13   ar
    21     2    24    1
    22    26    12   ar
    23    26    25   ar
    24    12    17   ar
    25    13    14    1
    26    13    15   ar
    27    40    39    1
    28    43    42    1
    29    24    25    1
    30    24    23    1
    31    25    20   ar
    32    44    42    1
    33    17    15   ar
    34    17    18   ar
    35    15    16    1
    36    42    39    1
    37    42    45    1
    38    39    23    1
    39    39    41    1
    40    23    22    1
    41    20    18   ar
    42    20    21    1
    43    18    19    1
    44    22    21    2
    45    22    32    1
    46    21     3    1
    47    36    35    1
    48    57    54    1
    49    33    32    1
    50    32    35    1
    51    32    34    1
    52     3     1    1
    53    35    38    1
    54    35    37    1
    55    55    54    1
    56    54     1    1
    57    54    56    1
    58    61    59    1
    59    51    50    1
    60     1    50    1
    61     1    58    1
    62    60    59    1
    63    59    58    1
    64    59    62    1
    65    50    52    1
    66    50    53    1
    67    69    67    1
    68    58    67    1
    69    58    63    1
    70    67    70    1
    71    67    68    1
    72    65    63    1
    73    63    64    1
    74    63    66    1
