@<TRIPOS>MOLECULE
4,6,8,10,11,31
 70 74 0 0 0
SMALL
GASTEIGER

@<TRIPOS>ATOM
      1 SI         12.3566    7.6122   13.1383 Si      1  UNL1        0.0000
      2 O          13.3703    8.5702   12.2617 O.2     1  UNL1        0.0000
      3 O          14.5388    8.9532    6.8737 O.2     1  UNL1        0.0000
      4 C          17.4660    3.1755    6.7481 C.3     1  UNL1        0.0000
      5 H          17.5373    3.0670    5.6712 H       1  UNL1        0.0000
      6 C          18.2219    2.3607    7.5846 C.3     1  UNL1        0.0000
      7 H          18.8682    1.5978    7.1653 H       1  UNL1        0.0000
      8 C          18.1576    2.5309    8.9779 C.3     1  UNL1        0.0000
      9 H          18.7731    1.9136    9.6235 H       1  UNL1        0.0000
     10 C          17.4130    3.5847    9.5459 C.ar    1  UNL1        0.0000
     11 C          16.7145    4.4946    8.6806 C.ar    1  UNL1        0.0000
     12 C          16.0129    5.6044    9.2220 C.ar    1  UNL1        0.0000
     13 C          17.3827    3.8191   10.9561 C.ar    1  UNL1        0.0000
     14 H          17.9334    3.1437   11.5964 H       1  UNL1        0.0000
     15 C          16.6732    4.8448   11.4749 C.ar    1  UNL1        0.0000
     16 H          16.6346    5.0052   12.5421 H       1  UNL1        0.0000
     17 C          15.9471    5.7515   10.6407 C.ar    1  UNL1        0.0000
     18 C          15.1479    6.7399   11.1673 C.2     1  UNL1        0.0000
     19 H          15.0435    6.8269   12.2354 H       1  UNL1        0.0000
     20 C          14.4841    7.6706   10.3513 C.2     1  UNL1        0.0000
     21 C          13.6350    8.6465   10.9326 C.2     1  UNL1        0.0000
     22 C          13.1046    9.6730   10.1772 C.2     1  UNL1        0.0000
     23 C          13.4491    9.7650    8.8143 C.2     1  UNL1        0.0000
     24 C          14.2199    8.7792    8.2163 C.2     1  UNL1        0.0000
     25 C          14.6980    7.6664    8.9464 C.3     1  UNL1        0.0000
     26 C          15.3771    6.5352    8.3732 C.ar    1  UNL1        0.0000
     27 C          15.3855    6.2706    6.9798 C.ar    1  UNL1        0.0000
     28 H          14.8319    6.9210    6.3244 H       1  UNL1        0.0000
     29 C          16.0376    5.1972    6.4506 C.ar    1  UNL1        0.0000
     30 H          16.0204    5.0244    5.3834 H       1  UNL1        0.0000
     31 C          16.7423    4.2871    7.2726 C.ar    1  UNL1        0.0000
     32 C          12.3668    5.7916   12.5715 C.3     1  UNL1        0.0000
     33 H          12.3434    5.7274   11.4870 H       1  UNL1        0.0000
     34 H          11.4974    5.2604   12.9450 H       1  UNL1        0.0000
     35 H          13.2439    5.2447   12.9025 H       1  UNL1        0.0000
     36 C          10.5493    8.2133   12.9971 C.3     1  UNL1        0.0000
     37 H          10.4190    9.2301   13.3562 H       1  UNL1        0.0000
     38 H           9.8866    7.5798   13.5777 H       1  UNL1        0.0000
     39 H          10.2051    8.1794   11.9669 H       1  UNL1        0.0000
     40 C          13.0349    7.8560   14.9214 C.3     1  UNL1        0.0000
     41 C          14.4907    7.3946   15.0289 C.3     1  UNL1        0.0000
     42 H          14.8575    7.5327   16.0459 H       1  UNL1        0.0000
     43 H          15.1252    7.9724   14.3603 H       1  UNL1        0.0000
     44 H          14.5837    6.3396   14.7792 H       1  UNL1        0.0000
     45 C          12.1918    7.0369   15.8987 C.3     1  UNL1        0.0000
     46 H          12.2289    5.9794   15.6492 H       1  UNL1        0.0000
     47 H          11.1532    7.3563   15.8735 H       1  UNL1        0.0000
     48 H          12.5601    7.1604   16.9167 H       1  UNL1        0.0000
     49 C          12.9670    9.3299   15.3285 C.3     1  UNL1        0.0000
     50 H          13.3768    9.4673   16.3290 H       1  UNL1        0.0000
     51 H          11.9390    9.6834   15.3329 H       1  UNL1        0.0000
     52 H          13.5387    9.9435   14.6369 H       1  UNL1        0.0000
     53 C          12.2550   10.7090   10.8611 C.3     1  UNL1        0.0000
     54 H          11.6805   10.2224   11.6474 H       1  UNL1        0.0000
     55 H          11.5552   11.1630   10.1616 H       1  UNL1        0.0000
     56 C          13.1317   11.7890   11.4992 C.3     1  UNL1        0.0000
     57 H          13.7978   11.3389   12.2308 H       1  UNL1        0.0000
     58 H          12.5144   12.5307   12.0008 H       1  UNL1        0.0000
     59 H          13.7385   12.2914   10.7486 H       1  UNL1        0.0000
     60 C          12.9387   10.8918    7.9563 C.3     1  UNL1        0.0000
     61 H          13.6617   11.1023    7.1678 H       1  UNL1        0.0000
     62 H          12.8097   11.7982    8.5458 H       1  UNL1        0.0000
     63 C          11.6140   10.5007    7.2971 C.3     1  UNL1        0.0000
     64 H          11.7640    9.6326    6.6605 H       1  UNL1        0.0000
     65 H          11.2387   11.3201    6.6882 H       1  UNL1        0.0000
     66 H          10.8660   10.2513    8.0464 H       1  UNL1        0.0000
     67 C          15.8654    9.3904    6.6647 C.3     1  UNL1        0.0000
     68 H          16.0505   10.3465    7.1670 H       1  UNL1        0.0000
     69 H          15.9791    9.5173    5.5892 H       1  UNL1        0.0000
     70 H          16.5960    8.6578    7.0239 H       1  UNL1        0.0000
@<TRIPOS>BOND
     1    30    29    1
     2    69    67    1
     3     5     4    1
     4    28    27    1
     5    29    27   ar
     6    29    31   ar
     7    64    63    1
     8    67     3    1
     9    67    70    1
    10    67    68    1
    11    65    63    1
    12     4    31    1
    13     4     6    1
    14     3    24    1
    15    27    26   ar
    16     7     6    1
    17    61    60    1
    18    31    11   ar
    19    63    60    1
    20    63    66    1
    21     6     8    1
    22    60    62    1
    23    60    23    1
    24    24    23    2
    25    24    25    1
    26    26    25    1
    27    26    12   ar
    28    11    12   ar
    29    11    10   ar
    30    23    22    1
    31    25    20    1
    32     8    10    1
    33     8     9    1
    34    12    17   ar
    35    10    13   ar
    36    55    53    1
    37    22    53    1
    38    22    21    2
    39    20    21    1
    40    20    18    2
    41    17    18    1
    42    17    15   ar
    43    59    56    1
    44    53    56    1
    45    53    54    1
    46    21     2    1
    47    13    15   ar
    48    13    14    1
    49    18    19    1
    50    15    16    1
    51    33    32    1
    52    56    58    1
    53    56    57    1
    54    39    36    1
    55     2     1    1
    56    32    35    1
    57    32    34    1
    58    32     1    1
    59    36     1    1
    60    36    37    1
    61    36    38    1
    62     1    40    1
    63    43    41    1
    64    52    49    1
    65    44    41    1
    66    40    41    1
    67    40    49    1
    68    40    45    1
    69    41    42    1
    70    49    51    1
    71    49    50    1
    72    46    45    1
    73    47    45    1
    74    45    48    1
