@<TRIPOS>MOLECULE
2,3,4,5,6,7
 24 24 0 0 0
SMALL
GASTEIGER

@<TRIPOS>ATOM
      1 SI          2.0688    3.1954    5.6086 Si      1  UNL1        0.0000
      2 C           1.9613    1.7656    4.3625 C.3     1  UNL1        0.0000
      3 C           2.1885    1.9546    2.9806 C.3     1  UNL1        0.0000
      4 C           2.0899    0.8996    2.0742 C.3     1  UNL1        0.0000
      5 C           1.7306   -0.3827    2.5319 C.2     1  UNL1        0.0000
      6 C           1.5180   -0.6002    3.8920 C.2     1  UNL1        0.0000
      7 C           1.6091    0.4789    4.7912 C.3     1  UNL1        0.0000
      8 C           3.6494    2.9377    6.6528 C.3     1  UNL1        0.0000
      9 C           2.1425    4.8464    4.6631 C.3     1  UNL1        0.0000
     10 C           0.4975    3.1115    6.6815 C.3     1  UNL1        0.0000
     11 H           2.5234    2.9237    2.6296 H       1  UNL1        0.0000
     12 H           2.3409    1.0477    1.0303 H       1  UNL1        0.0000
     13 H           1.7096   -1.2148    1.8373 H       1  UNL1        0.0000
     14 H           1.3262   -1.6007    4.2621 H       1  UNL1        0.0000
     15 H           1.4902    0.2862    5.8517 H       1  UNL1        0.0000
     16 H           3.6423    1.9804    7.1657 H       1  UNL1        0.0000
     17 H           4.5483    2.9771    6.0442 H       1  UNL1        0.0000
     18 H           3.7328    3.7118    7.4086 H       1  UNL1        0.0000
     19 H           3.0437    4.9410    4.0644 H       1  UNL1        0.0000
     20 H           1.2862    4.9578    4.0044 H       1  UNL1        0.0000
     21 H           2.1300    5.6803    5.3573 H       1  UNL1        0.0000
     22 H           0.3951    4.0005    7.2956 H       1  UNL1        0.0000
     23 H           0.5077    2.2570    7.3514 H       1  UNL1        0.0000
     24 H          -0.3915    3.0310    6.0604 H       1  UNL1        0.0000
@<TRIPOS>BOND
     1    12     4    1
     2    13     5    1
     3     4     5    1
     4     4     3    1
     5     5     6    2
     6    11     3    1
     7     3     2    1
     8     6    14    1
     9     6     7    1
    10    20     9    1
    11    19     9    1
    12     2     7    1
    13     2     1    1
    14     9    21    1
    15     9     1    1
    16     7    15    1
    17     1     8    1
    18     1    10    1
    19    17     8    1
    20    24    10    1
    21     8    16    1
    22     8    18    1
    23    10    22    1
    24    10    23    1
