@<TRIPOS>MOLECULE
1,7,15,23,62
 62 64 0 0 0
SMALL
GASTEIGER

@<TRIPOS>ATOM
      1 C          13.0937    5.6617    5.4333 C.2     1  UNL1        0.0000
      2 O          13.6961    4.8802    6.4005 O.2     1  UNL1        0.0000
      3 C          13.0366    3.6592    6.7001 C.3     1  UNL1        0.0000
      4 H          13.6624    3.1588    7.4367 H       1  UNL1        0.0000
      5 H          12.9404    3.0347    5.8049 H       1  UNL1        0.0000
      6 H          12.0392    3.8258    7.1168 H       1  UNL1        0.0000
      7 C          13.6449    5.6971    4.1401 C.3     1  UNL1        0.0000
      8 C          14.8829    4.8801    3.8722 C.3     1  UNL1        0.0000
      9 H          14.9654    4.6403    2.8122 H       1  UNL1        0.0000
     10 H          14.8172    3.9391    4.4205 H       1  UNL1        0.0000
     11 C          16.1305    5.6303    4.3479 C.3     1  UNL1        0.0000
     12 H          17.0225    5.0430    4.1454 H       1  UNL1        0.0000
     13 H          16.0669    5.8072    5.4191 H       1  UNL1        0.0000
     14 H          16.2268    6.5909    3.8449 H       1  UNL1        0.0000
     15 C          13.1716    6.6644    3.2096 C.2     1  UNL1        0.0000
     16 C          13.8109    6.8432    1.8566 C.3     1  UNL1        0.0000
     17 H          14.8747    6.6088    1.8979 H       1  UNL1        0.0000
     18 H          13.7081    7.8847    1.5521 H       1  UNL1        0.0000
     19 C          13.1301    5.9679    0.8007 C.3     1  UNL1        0.0000
     20 H          13.5827    6.1389   -0.1734 H       1  UNL1        0.0000
     21 H          12.0709    6.2084    0.7405 H       1  UNL1        0.0000
     22 H          13.2223    4.9127    1.0481 H       1  UNL1        0.0000
     23 C          12.0434    7.4325    3.5229 C.2     1  UNL1        0.0000
     24 O          11.6654    8.4120    2.6565 O.2     1  UNL1        0.0000
     25 SI         12.0843   10.0135    2.7189 Si      1  UNL1        0.0000
     26 C          11.3186   10.9126    4.2178 C.3     1  UNL1        0.0000
     27 H          10.2347   10.9460    4.1732 H       1  UNL1        0.0000
     28 H          11.6746   11.9363    4.2752 H       1  UNL1        0.0000
     29 H          11.5870   10.4248    5.1518 H       1  UNL1        0.0000
     30 C          13.9775   10.2065    2.9205 C.3     1  UNL1        0.0000
     31 H          14.5223   10.0579    1.9927 H       1  UNL1        0.0000
     32 H          14.3644    9.4913    3.6431 H       1  UNL1        0.0000
     33 H          14.2296   11.1978    3.2827 H       1  UNL1        0.0000
     34 C          11.4251   10.6634    1.0393 C.3     1  UNL1        0.0000
     35 C          12.0754    9.9311   -0.1381 C.3     1  UNL1        0.0000
     36 H          13.1535   10.0770   -0.1427 H       1  UNL1        0.0000
     37 H          11.6814   10.3113   -1.0798 H       1  UNL1        0.0000
     38 H          11.8675    8.8653   -0.0896 H       1  UNL1        0.0000
     39 C          11.7498   12.1535    0.9320 C.3     1  UNL1        0.0000
     40 H          12.8220   12.3226    0.9930 H       1  UNL1        0.0000
     41 H          11.2712   12.7113    1.7327 H       1  UNL1        0.0000
     42 H          11.3961   12.5521   -0.0178 H       1  UNL1        0.0000
     43 C           9.9082   10.4837    0.9378 C.3     1  UNL1        0.0000
     44 H           9.3992   10.9963    1.7506 H       1  UNL1        0.0000
     45 H           9.6434    9.4298    0.9697 H       1  UNL1        0.0000
     46 H           9.5436   10.8948   -0.0029 H       1  UNL1        0.0000
     47 C          11.3638    7.2880    4.7766 C.3     1  UNL1        0.0000
     48 C          10.1090    7.9263    5.0942 C.ar    1  UNL1        0.0000
     49 C           9.2400    8.4300    4.1118 C.ar    1  UNL1        0.0000
     50 H           9.4905    8.3182    3.0718 H       1  UNL1        0.0000
     51 C           8.0485    9.0240    4.4455 C.ar    1  UNL1        0.0000
     52 H           7.3864    9.3913    3.6770 H       1  UNL1        0.0000
     53 C           7.6913    9.1417    5.7880 C.ar    1  UNL1        0.0000
     54 BR          6.0614   10.0170    6.2450 Br      1  UNL1        0.0000
     55 C           8.4822    8.6142    6.7771 C.ar    1  UNL1        0.0000
     56 H           8.1776    8.6648    7.8116 H       1  UNL1        0.0000
     57 C           9.6841    7.9745    6.4453 C.ar    1  UNL1        0.0000
     58 C          10.4618    7.3372    7.4555 C.2     1  UNL1        0.0000
     59 H          10.1504    7.4386    8.4841 H       1  UNL1        0.0000
     60 C          11.5319    6.5790    7.1294 C.2     1  UNL1        0.0000
     61 H          12.1016    6.0664    7.8903 H       1  UNL1        0.0000
     62 C          11.9850    6.4851    5.7778 C.2     1  UNL1        0.0000
@<TRIPOS>BOND
     1    37    35    1
     2    20    19    1
     3    36    35    1
     4    35    38    1
     5    35    34    1
     6    42    39    1
     7    46    43    1
     8    21    19    1
     9    19    22    1
    10    19    16    1
    11    39    40    1
    12    39    34    1
    13    39    41    1
    14    43    45    1
    15    43    34    1
    16    43    44    1
    17    34    25    1
    18    18    16    1
    19    16    17    1
    20    16    15    1
    21    31    30    1
    22    24    25    1
    23    24    23    1
    24    25    30    1
    25    25    26    1
    26     9     8    1
    27    30    33    1
    28    30    32    1
    29    50    49    1
    30    15    23    2
    31    15     7    1
    32    23    47    1
    33    52    51    1
    34    14    11    1
    35     8     7    1
    36     8    11    1
    37     8    10    1
    38    49    51   ar
    39    49    48   ar
    40     7     1    1
    41    12    11    1
    42    27    26    1
    43    26    28    1
    44    26    29    1
    45    11    13    1
    46    51    53   ar
    47    47    48    1
    48    47    62    1
    49    48    57   ar
    50     1    62    2
    51     1     2    1
    52    62    60    1
    53    53    54    1
    54    53    55   ar
    55     5     3    1
    56     2     3    1
    57    57    55   ar
    58    57    58    1
    59     3     6    1
    60     3     4    1
    61    55    56    1
    62    60    58    2
    63    60    61    1
    64    58    59    1
