@<TRIPOS>MOLECULE
1,7,15,23,47,62
 62 64 0 0 0
SMALL
GASTEIGER

@<TRIPOS>ATOM
      1 C          -2.9316    6.9008    1.8434 C.2     1  UNL1        0.0000
      2 O          -3.4082    7.7163    0.8335 O.2     1  UNL1        0.0000
      3 C          -2.6290    8.8716    0.5645 C.3     1  UNL1        0.0000
      4 H          -3.1621    9.4128   -0.2153 H       1  UNL1        0.0000
      5 H          -1.6255    8.6143    0.2140 H       1  UNL1        0.0000
      6 H          -2.5354    9.4986    1.4583 H       1  UNL1        0.0000
      7 C          -3.5712    6.9206    3.0955 C.3     1  UNL1        0.0000
      8 C          -4.7613    7.8290    3.2720 C.3     1  UNL1        0.0000
      9 H          -4.5862    8.7583    2.7275 H       1  UNL1        0.0000
     10 H          -4.9013    8.0826    4.3226 H       1  UNL1        0.0000
     11 C          -6.0241    7.1697    2.7098 C.3     1  UNL1        0.0000
     12 H          -6.8826    7.8228    2.8460 H       1  UNL1        0.0000
     13 H          -6.2269    6.2228    3.2071 H       1  UNL1        0.0000
     14 H          -5.8971    6.9801    1.6465 H       1  UNL1        0.0000
     15 C          -3.2334    5.9332    4.0621 C.2     1  UNL1        0.0000
     16 C          -3.9779    5.8131    5.3672 C.3     1  UNL1        0.0000
     17 H          -5.0176    6.1188    5.2478 H       1  UNL1        0.0000
     18 H          -3.9695    4.7702    5.6843 H       1  UNL1        0.0000
     19 C          -3.3159    6.6516    6.4640 C.3     1  UNL1        0.0000
     20 H          -3.8466    6.5220    7.4047 H       1  UNL1        0.0000
     21 H          -3.3182    7.7078    6.2042 H       1  UNL1        0.0000
     22 H          -2.2822    6.3412    6.6003 H       1  UNL1        0.0000
     23 C          -2.1397    5.0883    3.8333 C.2     1  UNL1        0.0000
     24 O          -1.8922    4.0961    4.7338 O.2     1  UNL1        0.0000
     25 SI         -2.4152    2.5294    4.6517 Si      1  UNL1        0.0000
     26 C          -1.5850    1.5416    3.2463 C.3     1  UNL1        0.0000
     27 H          -0.5110    1.4573    3.3777 H       1  UNL1        0.0000
     28 H          -1.7527    2.0115    2.2803 H       1  UNL1        0.0000
     29 H          -1.9895    0.5359    3.1905 H       1  UNL1        0.0000
     30 C          -4.2921    2.4663    4.2791 C.3     1  UNL1        0.0000
     31 H          -4.9077    2.6535    5.1541 H       1  UNL1        0.0000
     32 H          -4.5787    1.4951    3.8891 H       1  UNL1        0.0000
     33 H          -4.5600    3.2070    3.5288 H       1  UNL1        0.0000
     34 C          -1.9613    1.8654    6.3933 C.3     1  UNL1        0.0000
     35 C          -0.4510    1.9442    6.6291 C.3     1  UNL1        0.0000
     36 H           0.0910    1.3772    5.8759 H       1  UNL1        0.0000
     37 H          -0.2010    1.5351    7.6076 H       1  UNL1        0.0000
     38 H          -0.1114    2.9763    6.5979 H       1  UNL1        0.0000
     39 C          -2.6620    2.6612    7.4982 C.3     1  UNL1        0.0000
     40 H          -3.7438    2.5926    7.4044 H       1  UNL1        0.0000
     41 H          -2.3734    3.7084    7.4585 H       1  UNL1        0.0000
     42 H          -2.3847    2.2696    8.4763 H       1  UNL1        0.0000
     43 C          -2.3974    0.4034    6.4888 C.3     1  UNL1        0.0000
     44 H          -3.4691    0.3073    6.3326 H       1  UNL1        0.0000
     45 H          -2.1591   -0.0014    7.4715 H       1  UNL1        0.0000
     46 H          -1.8892   -0.2002    5.7413 H       1  UNL1        0.0000
     47 C          -1.3724    5.1636    2.6252 C.3     1  UNL1        0.0000
     48 C          -0.1468    4.4336    2.3971 C.ar    1  UNL1        0.0000
     49 C           0.6242    3.8941    3.4390 C.ar    1  UNL1        0.0000
     50 H           0.3164    4.0438    4.4592 H       1  UNL1        0.0000
     51 C           1.7934    3.2207    3.1810 C.ar    1  UNL1        0.0000
     52 H           2.3772    2.8308    4.0015 H       1  UNL1        0.0000
     53 C           2.2392    3.0467    1.8708 C.ar    1  UNL1        0.0000
     54 H           3.1498    2.4999    1.6776 H       1  UNL1        0.0000
     55 C           1.5323    3.6060    0.8364 C.ar    1  UNL1        0.0000
     56 H           1.8886    3.5209   -0.1802 H       1  UNL1        0.0000
     57 C           0.3548    4.3291    1.0765 C.ar    1  UNL1        0.0000
     58 C          -0.3154    4.9984    0.0122 C.2     1  UNL1        0.0000
     59 H           0.0494    4.8552   -0.9942 H       1  UNL1        0.0000
     60 C          -1.3453    5.8387    0.2576 C.2     1  UNL1        0.0000
     61 H          -1.8279    6.3777   -0.5443 H       1  UNL1        0.0000
     62 C          -1.8713    5.9894    1.5768 C.2     1  UNL1        0.0000
@<TRIPOS>BOND
     1    59    58    1
     2    61    60    1
     3     4     3    1
     4    56    55    1
     5    58    60    2
     6    58    57    1
     7     5     3    1
     8    60    62    1
     9     3     2    1
    10     3     6    1
    11     2     1    1
    12    55    57   ar
    13    55    53   ar
    14    57    48   ar
    15    62     1    2
    16    62    47    1
    17    14    11    1
    18    54    53    1
    19     1     7    1
    20    53    51   ar
    21    28    26    1
    22    48    47    1
    23    48    49   ar
    24    47    23    1
    25    11    12    1
    26    11    13    1
    27    11     8    1
    28     9     8    1
    29     7     8    1
    30     7    15    1
    31    51    49   ar
    32    51    52    1
    33    29    26    1
    34    26    27    1
    35    26    25    1
    36     8    10    1
    37    49    50    1
    38    33    30    1
    39    23    15    2
    40    23    24    1
    41    32    30    1
    42    15    16    1
    43    30    25    1
    44    30    31    1
    45    25    24    1
    46    25    34    1
    47    17    16    1
    48    16    18    1
    49    16    19    1
    50    46    43    1
    51    36    35    1
    52    21    19    1
    53    44    43    1
    54    34    43    1
    55    34    35    1
    56    34    39    1
    57    19    22    1
    58    19    20    1
    59    43    45    1
    60    38    35    1
    61    35    37    1
    62    40    39    1
    63    41    39    1
    64    39    42    1
