@<TRIPOS>MOLECULE
1,25,33,41,47,61
 65 67 0 0 0
SMALL
GASTEIGER

@<TRIPOS>ATOM
      1 C           4.2943    6.2379    6.1998 C.2     1  UNL1        0.0000
      2 O           4.7925    6.9777    5.1827 O.2     1  UNL1        0.0000
      3 SI          4.1912    7.4105    3.7058 Si      1  UNL1        0.0000
      4 C           2.6783    8.5667    3.8253 C.3     1  UNL1        0.0000
      5 H           1.9189    8.1558    4.4836 H       1  UNL1        0.0000
      6 H           2.2200    8.6910    2.8496 H       1  UNL1        0.0000
      7 H           2.9289    9.5590    4.1901 H       1  UNL1        0.0000
      8 C           3.6906    5.8772    2.6945 C.3     1  UNL1        0.0000
      9 H           4.5416    5.3247    2.3068 H       1  UNL1        0.0000
     10 H           3.0761    6.1551    1.8452 H       1  UNL1        0.0000
     11 H           3.1027    5.1957    3.3068 H       1  UNL1        0.0000
     12 C           5.7083    8.3365    2.9689 C.3     1  UNL1        0.0000
     13 C           6.1411    9.4895    3.8781 C.3     1  UNL1        0.0000
     14 H           6.4095    9.1187    4.8644 H       1  UNL1        0.0000
     15 H           5.3418   10.2187    3.9880 H       1  UNL1        0.0000
     16 H           7.0072   10.0003    3.4579 H       1  UNL1        0.0000
     17 C           6.9017    7.3972    2.7807 C.3     1  UNL1        0.0000
     18 H           6.6560    6.5894    2.0959 H       1  UNL1        0.0000
     19 H           7.2047    6.9660    3.7307 H       1  UNL1        0.0000
     20 H           7.7504    7.9424    2.3681 H       1  UNL1        0.0000
     21 C           5.3193    8.9055    1.6052 C.3     1  UNL1        0.0000
     22 H           5.0157    8.1101    0.9297 H       1  UNL1        0.0000
     23 H           6.1613    9.4315    1.1564 H       1  UNL1        0.0000
     24 H           4.4929    9.6049    1.6988 H       1  UNL1        0.0000
     25 C           4.7082    4.9054    6.3628 C.3     1  UNL1        0.0000
     26 C           5.7245    4.3465    5.4005 C.3     1  UNL1        0.0000
     27 H           5.5387    4.7658    4.4119 H       1  UNL1        0.0000
     28 H           5.6298    3.2628    5.3266 H       1  UNL1        0.0000
     29 C           7.1436    4.7284    5.8327 C.3     1  UNL1        0.0000
     30 H           7.8707    4.3497    5.1184 H       1  UNL1        0.0000
     31 H           7.3809    4.3231    6.8147 H       1  UNL1        0.0000
     32 H           7.2377    5.8112    5.8822 H       1  UNL1        0.0000
     33 C           4.3460    4.2135    7.5533 C.2     1  UNL1        0.0000
     34 C           4.8933    2.8474    7.8849 C.3     1  UNL1        0.0000
     35 H           5.0439    2.7783    8.9650 H       1  UNL1        0.0000
     36 H           5.8578    2.6884    7.4032 H       1  UNL1        0.0000
     37 C           3.9212    1.7419    7.4671 C.3     1  UNL1        0.0000
     38 H           4.3214    0.7688    7.7425 H       1  UNL1        0.0000
     39 H           3.7544    1.7605    6.3928 H       1  UNL1        0.0000
     40 H           2.9647    1.8811    7.9650 H       1  UNL1        0.0000
     41 C           3.4253    4.7838    8.4400 C.2     1  UNL1        0.0000
     42 O           3.1408    4.0703    9.5976 O.2     1  UNL1        0.0000
     43 C           3.7495    4.5986   10.7613 C.3     1  UNL1        0.0000
     44 H           3.4827    3.9237   11.5721 H       1  UNL1        0.0000
     45 H           3.3842    5.6045   10.9909 H       1  UNL1        0.0000
     46 H           4.8402    4.6311   10.6564 H       1  UNL1        0.0000
     47 C           2.8882    6.0970    8.2232 C.3     1  UNL1        0.0000
     48 C           1.8630    6.7152    9.0353 C.ar    1  UNL1        0.0000
     49 C           1.0391    5.9634    9.8912 C.ar    1  UNL1        0.0000
     50 H           1.1446    4.8912    9.9210 H       1  UNL1        0.0000
     51 C           0.0659    6.5614   10.6526 C.ar    1  UNL1        0.0000
     52 H          -0.5617    5.9583   11.2910 H       1  UNL1        0.0000
     53 C          -0.1238    7.9403   10.5915 C.ar    1  UNL1        0.0000
     54 H          -0.8822    8.4095   11.2002 H       1  UNL1        0.0000
     55 C           0.6353    8.6940    9.7319 C.ar    1  UNL1        0.0000
     56 H           0.4543    9.7546    9.6603 H       1  UNL1        0.0000
     57 C           1.6231    8.1092    8.9234 C.ar    1  UNL1        0.0000
     58 C           2.3657    8.8894    7.9736 C.2     1  UNL1        0.0000
     59 C           3.1923    8.2603    7.1011 C.2     1  UNL1        0.0000
     60 H           3.7327    8.8247    6.3574 H       1  UNL1        0.0000
     61 C           3.4368    6.8598    7.1554 C.2     1  UNL1        0.0000
     62 C           2.2007   10.3763    7.9119 C.3     1  UNL1        0.0000
     63 H           2.8915   10.8014    7.1881 H       1  UNL1        0.0000
     64 H           2.3941   10.8294    8.8832 H       1  UNL1        0.0000
     65 H           1.1864   10.6356    7.6102 H       1  UNL1        0.0000
@<TRIPOS>BOND
     1    22    21    1
     2    23    21    1
     3    21    24    1
     4    21    12    1
     5    10     8    1
     6    18    17    1
     7     9     8    1
     8    20    17    1
     9     8    11    1
    10     8     3    1
    11    17    12    1
    12    17    19    1
    13     6     4    1
    14    12     3    1
    15    12    13    1
    16    16    13    1
    17     3     4    1
    18     3     2    1
    19     4     7    1
    20     4     5    1
    21    13    15    1
    22    13    14    1
    23    27    26    1
    24    30    29    1
    25     2     1    1
    26    28    26    1
    27    26    29    1
    28    26    25    1
    29    29    32    1
    30    29    31    1
    31     1    25    1
    32     1    61    2
    33    60    59    1
    34    25    33    1
    35    39    37    1
    36    59    61    1
    37    59    58    2
    38    61    47    1
    39    63    62    1
    40    36    34    1
    41    37    38    1
    42    37    34    1
    43    37    40    1
    44    33    34    1
    45    33    41    2
    46    65    62    1
    47    34    35    1
    48    62    58    1
    49    62    64    1
    50    58    57    1
    51    47    41    1
    52    47    48    1
    53    41    42    1
    54    57    48   ar
    55    57    55   ar
    56    48    49   ar
    57    42    43    1
    58    56    55    1
    59    55    53   ar
    60    49    50    1
    61    49    51   ar
    62    53    51   ar
    63    53    54    1
    64    51    52    1
    65    46    43    1
    66    43    45    1
    67    43    44    1
