@<TRIPOS>MOLECULE
1,2,3,4,5,20
 62 64 0 0 0
SMALL
GASTEIGER

@<TRIPOS>ATOM
      1 C           1.5110    7.4771   10.5508 C.2     1  UNL1        0.0000
      2 C           2.5484    8.4155   10.6228 C.2     1  UNL1        0.0000
      3 C           3.8575    7.9729   10.9705 C.3     1  UNL1        0.0000
      4 C           4.0809    6.6245   11.2904 C.3     1  UNL1        0.0000
      5 C           3.0204    5.6576   11.2691 C.ar    1  UNL1        0.0000
      6 C           3.1649    4.2732   11.6713 C.ar    1  UNL1        0.0000
      7 C           4.2509    3.8023   12.4298 C.ar    1  UNL1        0.0000
      8 H           4.9992    4.4951   12.7772 H       1  UNL1        0.0000
      9 C           4.3505    2.4791   12.7850 C.ar    1  UNL1        0.0000
     10 H           5.1890    2.1490   13.3794 H       1  UNL1        0.0000
     11 C           3.3732    1.5626   12.3974 C.ar    1  UNL1        0.0000
     12 H           3.4695    0.5220   12.6688 H       1  UNL1        0.0000
     13 C           2.2777    2.0006   11.6987 C.ar    1  UNL1        0.0000
     14 H           1.4900    1.3130   11.4258 H       1  UNL1        0.0000
     15 C           2.1377    3.3518   11.3465 C.ar    1  UNL1        0.0000
     16 C           0.9577    3.8064   10.6938 C.ar    1  UNL1        0.0000
     17 H           0.2160    3.0759   10.4071 H       1  UNL1        0.0000
     18 C           0.7481    5.1249   10.4777 C.ar    1  UNL1        0.0000
     19 H          -0.1579    5.4783   10.0122 H       1  UNL1        0.0000
     20 C           1.7471    6.0883   10.7984 C.ar    1  UNL1        0.0000
     21 O           0.2850    7.8651   10.1281 O.2     1  UNL1        0.0000
     22 SI         -1.0973    8.2371   10.9580 Si      1  UNL1        0.0000
     23 C          -0.7753    9.6148   12.2336 C.3     1  UNL1        0.0000
     24 H          -0.7125   10.6023   11.7856 H       1  UNL1        0.0000
     25 H           0.1554    9.4301   12.7686 H       1  UNL1        0.0000
     26 H          -1.5663    9.6497   12.9748 H       1  UNL1        0.0000
     27 C          -1.8233    6.7196   11.8578 C.3     1  UNL1        0.0000
     28 H          -2.2729    6.0016   11.1772 H       1  UNL1        0.0000
     29 H          -2.5945    7.0249   12.5572 H       1  UNL1        0.0000
     30 H          -1.0626    6.1974   12.4307 H       1  UNL1        0.0000
     31 C          -2.2586    8.7991    9.5303 C.3     1  UNL1        0.0000
     32 C          -1.8077   10.1274    8.9186 C.3     1  UNL1        0.0000
     33 H          -0.8034   10.0467    8.5132 H       1  UNL1        0.0000
     34 H          -1.8185   10.9202    9.6622 H       1  UNL1        0.0000
     35 H          -2.4783   10.4162    8.1095 H       1  UNL1        0.0000
     36 C          -2.3117    7.7476    8.4192 C.3     1  UNL1        0.0000
     37 H          -1.3220    7.5814    8.0009 H       1  UNL1        0.0000
     38 H          -2.9713    8.0763    7.6164 H       1  UNL1        0.0000
     39 H          -2.6893    6.8007    8.7980 H       1  UNL1        0.0000
     40 C          -3.6654    8.9865   10.0976 C.3     1  UNL1        0.0000
     41 H          -3.6636    9.7315   10.8890 H       1  UNL1        0.0000
     42 H          -4.0462    8.0558   10.5087 H       1  UNL1        0.0000
     43 H          -4.3495    9.3193    9.3177 H       1  UNL1        0.0000
     44 C           2.2640    9.8167   10.1460 C.3     1  UNL1        0.0000
     45 H           3.0390   10.5069   10.4761 H       1  UNL1        0.0000
     46 H           1.3146   10.1501   10.5662 H       1  UNL1        0.0000
     47 C           2.1523    9.8473    8.6176 C.3     1  UNL1        0.0000
     48 H           1.9533   10.8603    8.2753 H       1  UNL1        0.0000
     49 H           1.3395    9.2034    8.2913 H       1  UNL1        0.0000
     50 H           3.0681    9.4961    8.1470 H       1  UNL1        0.0000
     51 C           5.0299    8.9238   11.0479 C.3     1  UNL1        0.0000
     52 H           5.8034    8.4450   11.6512 H       1  UNL1        0.0000
     53 H           4.7271    9.8331   11.5720 H       1  UNL1        0.0000
     54 C           5.6285    9.2973    9.6889 C.3     1  UNL1        0.0000
     55 H           6.5618    9.8354    9.8371 H       1  UNL1        0.0000
     56 H           4.9596    9.9348    9.1185 H       1  UNL1        0.0000
     57 H           5.8406    8.4080    9.0983 H       1  UNL1        0.0000
     58 O           5.3868    6.2375   11.5648 O.3     1  UNL1        0.0000
     59 C           6.0238    5.5638   10.4954 C.3     1  UNL1        0.0000
     60 H           7.0293    5.3333   10.8413 H       1  UNL1        0.0000
     61 H           6.0821    6.2002    9.6061 H       1  UNL1        0.0000
     62 H           5.5061    4.6345   10.2360 H       1  UNL1        0.0000
@<TRIPOS>BOND
     1    38    36    1
     2    37    36    1
     3    35    32    1
     4    50    47    1
     5    48    47    1
     6    49    47    1
     7    36    39    1
     8    36    31    1
     9    33    32    1
    10    47    44    1
    11    32    31    1
    12    32    34    1
    13    57    54    1
    14    56    54    1
    15    43    40    1
    16    31    40    1
    17    31    22    1
    18    61    59    1
    19    54    55    1
    20    54    51    1
    21    19    18    1
    22    40    42    1
    23    40    41    1
    24    21     1    1
    25    21    22    1
    26    44    45    1
    27    44    46    1
    28    44     2    1
    29    62    59    1
    30    17    16    1
    31    18    16   ar
    32    18    20   ar
    33    59    60    1
    34    59    58    1
    35     1     2    2
    36     1    20    1
    37     2     3    1
    38    16    15   ar
    39    20     5   ar
    40    22    27    1
    41    22    23    1
    42     3    51    1
    43     3     4    1
    44    51    53    1
    45    51    52    1
    46    28    27    1
    47     5     4    1
    48     5     6   ar
    49     4    58    1
    50    15     6   ar
    51    15    13   ar
    52    14    13    1
    53     6     7   ar
    54    13    11   ar
    55    24    23    1
    56    27    30    1
    57    27    29    1
    58    23    25    1
    59    23    26    1
    60    11    12    1
    61    11     9   ar
    62     7     8    1
    63     7     9   ar
    64     9    10    1
