@<TRIPOS>MOLECULE
1,25,33,41,47,62
 62 64 0 0 0
SMALL
GASTEIGER

@<TRIPOS>ATOM
      1 C           9.5122   14.3389    6.8985 C.2     1  UNL1        0.0000
      2 O          10.2183   15.0320    5.9802 O.2     1  UNL1        0.0000
      3 SI         11.2682   14.5877    4.7797 Si      1  UNL1        0.0000
      4 C          12.8905   13.8395    5.4458 C.3     1  UNL1        0.0000
      5 H          12.6984   13.0098    6.1195 H       1  UNL1        0.0000
      6 H          13.5070   14.5597    5.9767 H       1  UNL1        0.0000
      7 H          13.4886   13.4511    4.6278 H       1  UNL1        0.0000
      8 C          10.4631   13.3172    3.6116 C.3     1  UNL1        0.0000
      9 H           9.7303   13.7568    2.9411 H       1  UNL1        0.0000
     10 H           9.9644   12.5370    4.1841 H       1  UNL1        0.0000
     11 H          11.2104   12.8319    2.9934 H       1  UNL1        0.0000
     12 C          11.5828   16.2930    3.9465 C.3     1  UNL1        0.0000
     13 C          12.1167   17.3067    4.9621 C.3     1  UNL1        0.0000
     14 H          11.4060   17.4474    5.7730 H       1  UNL1        0.0000
     15 H          12.2835   18.2712    4.4835 H       1  UNL1        0.0000
     16 H          13.0618   16.9735    5.3843 H       1  UNL1        0.0000
     17 C          10.3043   16.8605    3.3253 C.3     1  UNL1        0.0000
     18 H           9.9169   16.1959    2.5570 H       1  UNL1        0.0000
     19 H          10.5058   17.8271    2.8642 H       1  UNL1        0.0000
     20 H           9.5378   16.9994    4.0826 H       1  UNL1        0.0000
     21 C          12.6213   16.1139    2.8397 C.3     1  UNL1        0.0000
     22 H          12.2713   15.4037    2.0950 H       1  UNL1        0.0000
     23 H          13.5598   15.7462    3.2452 H       1  UNL1        0.0000
     24 H          12.8148   17.0631    2.3414 H       1  UNL1        0.0000
     25 C           8.1490   14.0738    6.6832 C.3     1  UNL1        0.0000
     26 C           7.5058   14.5986    5.4257 C.3     1  UNL1        0.0000
     27 H           6.6505   13.9834    5.1453 H       1  UNL1        0.0000
     28 H           8.2315   14.5516    4.6144 H       1  UNL1        0.0000
     29 C           7.0752   16.0573    5.6096 C.3     1  UNL1        0.0000
     30 H           6.6431   16.4416    4.6889 H       1  UNL1        0.0000
     31 H           7.9366   16.6686    5.8699 H       1  UNL1        0.0000
     32 H           6.3381   16.1559    6.4044 H       1  UNL1        0.0000
     33 C           7.3734   13.5408    7.7516 C.2     1  UNL1        0.0000
     34 C           5.8756   13.3876    7.6562 C.3     1  UNL1        0.0000
     35 H           5.4566   14.1026    6.9490 H       1  UNL1        0.0000
     36 H           5.4353   13.5889    8.6356 H       1  UNL1        0.0000
     37 C           5.4860   11.9668    7.2423 C.3     1  UNL1        0.0000
     38 H           4.4032   11.8706    7.2148 H       1  UNL1        0.0000
     39 H           5.8833   11.2494    7.9563 H       1  UNL1        0.0000
     40 H           5.8834   11.7284    6.2588 H       1  UNL1        0.0000
     41 C           8.0021   13.1066    8.9242 C.2     1  UNL1        0.0000
     42 O           7.1852   12.6319    9.9413 O.2     1  UNL1        0.0000
     43 C           7.0087   13.5470   11.0083 C.3     1  UNL1        0.0000
     44 H           6.3193   13.0695   11.7015 H       1  UNL1        0.0000
     45 H           6.5765   14.4893   10.6530 H       1  UNL1        0.0000
     46 H           7.9517   13.7597   11.5217 H       1  UNL1        0.0000
     47 C           9.4179   13.2463    9.1157 C.3     1  UNL1        0.0000
     48 C          10.1412   12.7347   10.2602 C.ar    1  UNL1        0.0000
     49 C           9.6146   11.7634   11.1292 C.ar    1  UNL1        0.0000
     50 H           8.6436   11.3412   10.9286 H       1  UNL1        0.0000
     51 C          10.3359   11.3047   12.2054 C.ar    1  UNL1        0.0000
     52 H           9.9090   10.5493   12.8476 H       1  UNL1        0.0000
     53 C          11.6151   11.7931   12.4690 C.ar    1  UNL1        0.0000
     54 H          12.1661   11.4345   13.3248 H       1  UNL1        0.0000
     55 C          12.1788   12.7080   11.6160 C.ar    1  UNL1        0.0000
     56 H          13.1827   13.0706   11.7777 H       1  UNL1        0.0000
     57 C          11.4680   13.1724   10.5005 C.ar    1  UNL1        0.0000
     58 C          12.0635   14.0663    9.5643 C.2     1  UNL1        0.0000
     59 F          13.2948   14.5442    9.8426 F       1  UNL1        0.0000
     60 C          11.4637   14.4226    8.4077 C.2     1  UNL1        0.0000
     61 H          11.9566   15.0765    7.7082 H       1  UNL1        0.0000
     62 C          10.1400   13.9780    8.1278 C.2     1  UNL1        0.0000
@<TRIPOS>BOND
     1    22    21    1
     2    24    21    1
     3    18    17    1
     4    21    23    1
     5    21    12    1
     6    19    17    1
     7     9     8    1
     8    11     8    1
     9    17    12    1
    10    17    20    1
    11     8    10    1
    12     8     3    1
    13    12     3    1
    14    12    13    1
    15    15    13    1
    16    28    26    1
    17     7     4    1
    18    30    29    1
    19     3     4    1
    20     3     2    1
    21    13    16    1
    22    13    14    1
    23    27    26    1
    24    26    29    1
    25    26    25    1
    26     4     6    1
    27     4     5    1
    28    29    31    1
    29    29    32    1
    30     2     1    1
    31    40    37    1
    32    25     1    1
    33    25    33    1
    34     1    62    2
    35    35    34    1
    36    38    37    1
    37    37    34    1
    38    37    39    1
    39    34    33    1
    40    34    36    1
    41    61    60    1
    42    33    41    2
    43    62    60    1
    44    62    47    1
    45    60    58    2
    46    41    47    1
    47    41    42    1
    48    47    48    1
    49    58    59    1
    50    58    57    1
    51    42    43    1
    52    48    57   ar
    53    48    49   ar
    54    57    55   ar
    55    45    43    1
    56    50    49    1
    57    43    46    1
    58    43    44    1
    59    49    51   ar
    60    55    56    1
    61    55    53   ar
    62    51    53   ar
    63    51    52    1
    64    53    54    1
