@<TRIPOS>MOLECULE
18,19,43,51,59,65
 66 69 0 0 0
SMALL
GASTEIGER

@<TRIPOS>ATOM
      1 C           1.1734   11.5711   10.2133 C.ar    1  UNL1        0.0000
      2 H           1.2207   12.6356   10.3741 H       1  UNL1        0.0000
      3 C           0.3048   10.8134   10.9685 C.ar    1  UNL1        0.0000
      4 H          -0.2867   11.3049   11.7271 H       1  UNL1        0.0000
      5 C           0.1488    9.4336   10.7861 C.ar    1  UNL1        0.0000
      6 H          -0.5372    8.8779   11.4077 H       1  UNL1        0.0000
      7 C           0.8692    8.8277    9.7882 C.ar    1  UNL1        0.0000
      8 C           1.7390    9.6013    9.0132 C.ar    1  UNL1        0.0000
      9 C           0.9043    7.4054    9.3046 C.3     1  UNL1        0.0000
     10 H          -0.0858    7.0909    8.9700 H       1  UNL1        0.0000
     11 H           1.2082    6.7293   10.1060 H       1  UNL1        0.0000
     12 C           1.9209    7.4027    8.1369 C.3     1  UNL1        0.0000
     13 H           2.7724    6.7534    8.3506 H       1  UNL1        0.0000
     14 H           1.4662    7.0515    7.2096 H       1  UNL1        0.0000
     15 C           2.3634    8.8307    8.0010 C.ar    1  UNL1        0.0000
     16 C           3.1649    9.4447    7.1009 C.ar    1  UNL1        0.0000
     17 H           3.6542    8.9098    6.3039 H       1  UNL1        0.0000
     18 C           3.4023   10.8523    7.2122 C.ar    1  UNL1        0.0000
     19 C           4.1988   11.5106    6.2261 C.3     1  UNL1        0.0000
     20 O           4.6677   10.7945    5.1768 O.3     1  UNL1        0.0000
     21 SI          4.0344   10.3876    3.7064 Si      1  UNL1        0.0000
     22 C           2.5683    9.1721    3.8260 C.3     1  UNL1        0.0000
     23 H           2.8601    8.1867    4.1789 H       1  UNL1        0.0000
     24 H           2.1099    9.0398    2.8514 H       1  UNL1        0.0000
     25 H           1.7974    9.5471    4.4921 H       1  UNL1        0.0000
     26 C           3.4416   11.9271    2.7562 C.3     1  UNL1        0.0000
     27 H           4.2555   12.5171    2.3448 H       1  UNL1        0.0000
     28 H           2.8598   12.5738    3.4107 H       1  UNL1        0.0000
     29 H           2.7989   11.6487    1.9282 H       1  UNL1        0.0000
     30 C           5.5565    9.5373    2.8914 C.3     1  UNL1        0.0000
     31 C           6.7125   10.5206    2.6954 C.3     1  UNL1        0.0000
     32 H           6.4175   11.3437    2.0493 H       1  UNL1        0.0000
     33 H           7.5621   10.0178    2.2337 H       1  UNL1        0.0000
     34 H           7.0365   10.9273    3.6492 H       1  UNL1        0.0000
     35 C           5.1419    8.9984    1.5229 C.3     1  UNL1        0.0000
     36 H           4.7893    9.8035    0.8837 H       1  UNL1        0.0000
     37 H           4.3437    8.2676    1.6201 H       1  UNL1        0.0000
     38 H           5.9860    8.5166    1.0306 H       1  UNL1        0.0000
     39 C           6.0558    8.3711    3.7483 C.3     1  UNL1        0.0000
     40 H           5.2847    7.6122    3.8587 H       1  UNL1        0.0000
     41 H           6.3425    8.7188    4.7379 H       1  UNL1        0.0000
     42 H           6.9245    7.9039    3.2852 H       1  UNL1        0.0000
     43 C           4.5872   12.8529    6.3772 C.3     1  UNL1        0.0000
     44 C           5.5511   13.4396    5.3781 C.3     1  UNL1        0.0000
     45 H           5.4227   14.5199    5.3078 H       1  UNL1        0.0000
     46 H           5.3449   13.0143    4.3966 H       1  UNL1        0.0000
     47 C           6.9946   13.1000    5.7628 C.3     1  UNL1        0.0000
     48 H           7.6859   13.4953    5.0224 H       1  UNL1        0.0000
     49 H           7.1209   12.0206    5.8142 H       1  UNL1        0.0000
     50 H           7.2539   13.5171    6.7343 H       1  UNL1        0.0000
     51 C           4.2558   13.5403    7.5786 C.3     1  UNL1        0.0000
     52 C           4.7656   14.9282    7.8791 C.3     1  UNL1        0.0000
     53 H           5.7176   15.1084    7.3798 H       1  UNL1        0.0000
     54 H           4.9305   15.0212    8.9550 H       1  UNL1        0.0000
     55 C           3.7542   15.9977    7.4607 C.3     1  UNL1        0.0000
     56 H           4.1281   16.9859    7.7191 H       1  UNL1        0.0000
     57 H           2.8090   15.8353    7.9732 H       1  UNL1        0.0000
     58 H           3.5736   15.9617    6.3892 H       1  UNL1        0.0000
     59 C           3.3970   12.9380    8.5039 C.3     1  UNL1        0.0000
     60 O           3.1209   13.6334    9.6746 O.3     1  UNL1        0.0000
     61 C           3.8597   13.1752   10.7923 C.3     1  UNL1        0.0000
     62 H           3.5800   13.8196   11.6234 H       1  UNL1        0.0000
     63 H           4.9386   13.2560   10.6149 H       1  UNL1        0.0000
     64 H           3.6190   12.1363   11.0403 H       1  UNL1        0.0000
     65 C           2.8990   11.6069    8.3190 C.ar    1  UNL1        0.0000
     66 C           1.9523   10.9710    9.2068 C.ar    1  UNL1        0.0000
@<TRIPOS>BOND
     1    36    35    1
     2    38    35    1
     3    35    37    1
     4    35    30    1
     5    29    26    1
     6    32    31    1
     7    33    31    1
     8    27    26    1
     9    31    30    1
    10    31    34    1
    11    26    28    1
    12    26    21    1
    13    24    22    1
    14    30    21    1
    15    30    39    1
    16    42    39    1
    17    21    22    1
    18    21    20    1
    19    39    40    1
    20    39    41    1
    21    22    23    1
    22    22    25    1
    23    46    44    1
    24    48    47    1
    25    20    19    1
    26    45    44    1
    27    44    47    1
    28    44    43    1
    29    47    49    1
    30    47    50    1
    31    19    43    1
    32    19    18    1
    33    17    16    1
    34    43    51    1
    35    58    55    1
    36    16    18   ar
    37    16    15   ar
    38    14    12    1
    39    18    65   ar
    40    53    52    1
    41    55    56    1
    42    55    52    1
    43    55    57    1
    44    51    52    1
    45    51    59    1
    46    52    54    1
    47    15    12    1
    48    15     8   ar
    49    12    13    1
    50    12     9    1
    51    65    59    1
    52    65    66   ar
    53    59    60    1
    54    10     9    1
    55     8    66   ar
    56     8     7   ar
    57    66     1   ar
    58     9     7    1
    59     9    11    1
    60    60    61    1
    61     7     5   ar
    62     1     2    1
    63     1     3   ar
    64    63    61    1
    65     5     3   ar
    66     5     6    1
    67    61    64    1
    68    61    62    1
    69     3     4    1
