@<TRIPOS>MOLECULE
6,8,10,12,13,14
 38 40 0 0 0
SMALL
GASTEIGER

@<TRIPOS>ATOM
      1 C           5.9906    0.2377    5.6596 C.ar    1  UNL1        0.0000
      2 SI          3.8737    1.9361    6.5015 Si      1  UNL1        0.0000
      3 C           4.7580    0.7726    5.2994 C.ar    1  UNL1        0.0000
      4 SI          2.5576    1.1415    3.4627 Si      1  UNL1        0.0000
      5 C           4.2740    1.4890    8.3095 C.3     1  UNL1        0.0000
      6 C           2.0042    1.8052    6.2244 C.3     1  UNL1        0.0000
      7 C           4.3913    3.7536    6.1842 C.3     1  UNL1        0.0000
      8 C           1.1279    2.1104    7.2929 C.2     1  UNL1        0.0000
      9 C           2.7942    2.8074    2.5459 C.3     1  UNL1        0.0000
     10 C          -0.2539    2.0809    7.1323 C.2     1  UNL1        0.0000
     11 C           1.6822   -0.0829    2.2947 C.3     1  UNL1        0.0000
     12 C          -0.7979    1.7464    5.8756 C.2     1  UNL1        0.0000
     13 C           0.0535    1.4581    4.8138 C.2     1  UNL1        0.0000
     14 C           1.4598    1.4701    4.9721 C.3     1  UNL1        0.0000
     15 C           4.2182    0.4490    4.0488 C.ar    1  UNL1        0.0000
     16 C           4.9315   -0.3971    3.2058 C.ar    1  UNL1        0.0000
     17 C           6.1545   -0.9234    3.5770 C.ar    1  UNL1        0.0000
     18 C           6.6880   -0.6037    4.8133 C.ar    1  UNL1        0.0000
     19 H           1.5417    2.4379    8.2397 H       1  UNL1        0.0000
     20 H           3.8102    2.1800    9.0068 H       1  UNL1        0.0000
     21 H          -0.9097    2.3814    7.9417 H       1  UNL1        0.0000
     22 H           5.4496    3.8828    6.3885 H       1  UNL1        0.0000
     23 H          -1.8707    1.7924    5.7237 H       1  UNL1        0.0000
     24 H           3.8470    4.4424    6.8241 H       1  UNL1        0.0000
     25 H          -0.3687    1.2764    3.8324 H       1  UNL1        0.0000
     26 H           4.2205    4.0532    5.1553 H       1  UNL1        0.0000
     27 H           4.5209   -0.6514    2.2402 H       1  UNL1        0.0000
     28 H           3.2307    3.5687    3.1843 H       1  UNL1        0.0000
     29 H           6.6887   -1.5813    2.9069 H       1  UNL1        0.0000
     30 H           3.4545    2.6776    1.6944 H       1  UNL1        0.0000
     31 H           7.6421   -1.0101    5.1163 H       1  UNL1        0.0000
     32 H           1.8494    3.1927    2.1730 H       1  UNL1        0.0000
     33 H           6.4128    0.4823    6.6227 H       1  UNL1        0.0000
     34 H           1.4828   -1.0290    2.7865 H       1  UNL1        0.0000
     35 H           3.9352    0.4880    8.5569 H       1  UNL1        0.0000
     36 H           2.2924   -0.2863    1.4215 H       1  UNL1        0.0000
     37 H           5.3430    1.5308    8.4902 H       1  UNL1        0.0000
     38 H           0.7375    0.3097    1.9331 H       1  UNL1        0.0000
@<TRIPOS>BOND
     1    36    11    1
     2    30     9    1
     3    38    11    1
     4    32     9    1
     5    27    16    1
     6    11    34    1
     7    11     4    1
     8     9    28    1
     9     9     4    1
    10    29    17    1
    11    16    17   ar
    12    16    15   ar
    13     4    15    1
    14     4    14    1
    15    17    18   ar
    16    25    13    1
    17    15     3   ar
    18    18    31    1
    19    18     1   ar
    20    13    14    1
    21    13    12    2
    22    14     6    1
    23    26     7    1
    24     3     1   ar
    25     3     2    1
    26     1    33    1
    27    23    12    1
    28    12    10    1
    29     7    22    1
    30     7     2    1
    31     7    24    1
    32     6     2    1
    33     6     8    1
    34     2     5    1
    35    10     8    2
    36    10    21    1
    37     8    19    1
    38     5    37    1
    39     5    35    1
    40     5    20    1
