@<TRIPOS>MOLECULE
1,2,3,4,5,18
 70 72 0 0 0
SMALL
GASTEIGER

@<TRIPOS>ATOM
      1 C           2.2618   23.1709   -3.5065 C.3     1  UNL1        0.0000
      2 C           2.2658   24.2646   -4.3944 C.2     1  UNL1        0.0000
      3 C           3.4569   24.9820   -4.6172 C.2     1  UNL1        0.0000
      4 C           4.6137   24.6434   -3.8848 C.2     1  UNL1        0.0000
      5 C           4.5933   23.5809   -2.9544 C.2     1  UNL1        0.0000
      6 C           5.8402   23.3024   -2.1522 C.3     1  UNL1        0.0000
      7 H           6.5587   22.7785   -2.7914 H       1  UNL1        0.0000
      8 H           6.2932   24.2555   -1.8640 H       1  UNL1        0.0000
      9 C           5.5713   22.4367   -0.9270 C.3     1  UNL1        0.0000
     10 H           6.5203   22.1105   -0.4986 H       1  UNL1        0.0000
     11 H           5.0395   23.0146   -0.1673 H       1  UNL1        0.0000
     12 C           4.7231   21.2409   -1.3414 C.3     1  UNL1        0.0000
     13 H           4.6345   20.5276   -0.5206 H       1  UNL1        0.0000
     14 H           5.1926   20.7328   -2.1872 H       1  UNL1        0.0000
     15 C           3.3394   21.7367   -1.7418 C.3     1  UNL1        0.0000
     16 H           2.7405   20.9193   -2.1456 H       1  UNL1        0.0000
     17 H           2.8224   22.1160   -0.8543 H       1  UNL1        0.0000
     18 C           3.4135   22.8439   -2.7567 C.3     1  UNL1        0.0000
     19 C          -1.5966   23.4657   -3.0066 C.3     1  UNL1        0.0000
     20 H          -2.5542   23.1474   -2.6070 H       1  UNL1        0.0000
     21 H          -1.7089   23.5763   -4.0805 H       1  UNL1        0.0000
     22 H          -1.3893   24.4480   -2.5938 H       1  UNL1        0.0000
     23 C           0.0275   22.3565   -0.6652 C.3     1  UNL1        0.0000
     24 H           0.5712   23.2676   -0.4287 H       1  UNL1        0.0000
     25 H           0.5804   21.5191   -0.2501 H       1  UNL1        0.0000
     26 H          -0.9246   22.4039   -0.1460 H       1  UNL1        0.0000
     27 C          -0.7452   20.4507   -3.1299 C.3     1  UNL1        0.0000
     28 C           0.3740   19.4330   -2.8962 C.3     1  UNL1        0.0000
     29 H           0.6539   19.3901   -1.8454 H       1  UNL1        0.0000
     30 H           1.2498   19.6897   -3.4871 H       1  UNL1        0.0000
     31 H           0.0464   18.4390   -3.1987 H       1  UNL1        0.0000
     32 C          -1.9854   19.9952   -2.3594 C.3     1  UNL1        0.0000
     33 H          -2.2937   19.0037   -2.6887 H       1  UNL1        0.0000
     34 H          -2.8160   20.6775   -2.5218 H       1  UNL1        0.0000
     35 H          -1.7842   19.9511   -1.2918 H       1  UNL1        0.0000
     36 C          -1.0700   20.4614   -4.6264 C.3     1  UNL1        0.0000
     37 H          -0.2034   20.7770   -5.2016 H       1  UNL1        0.0000
     38 H          -1.8947   21.1366   -4.8423 H       1  UNL1        0.0000
     39 H          -1.3522   19.4626   -4.9572 H       1  UNL1        0.0000
     40 C           1.0178   24.6504   -5.0867 C.ar    1  UNL1        0.0000
     41 C           0.1976   25.6569   -4.5603 C.ar    1  UNL1        0.0000
     42 C          -0.9358   26.0634   -5.2618 C.ar    1  UNL1        0.0000
     43 H          -1.5563   26.8438   -4.8503 H       1  UNL1        0.0000
     44 C          -1.2679   25.4574   -6.4577 C.ar    1  UNL1        0.0000
     45 H          -2.1499   25.7730   -6.9940 H       1  UNL1        0.0000
     46 C          -0.4749   24.4363   -6.9614 C.ar    1  UNL1        0.0000
     47 H          -0.7419   23.9513   -7.8880 H       1  UNL1        0.0000
     48 C           0.6653   24.0409   -6.2850 C.ar    1  UNL1        0.0000
     49 H           1.3015   23.2601   -6.6801 H       1  UNL1        0.0000
     50 C           0.5086   26.2275   -3.2303 C.2     1  UNL1        0.0000
     51 C           0.0752   27.9733   -1.7327 C.3     1  UNL1        0.0000
     52 H          -0.4835   28.9054   -1.7345 H       1  UNL1        0.0000
     53 H           1.1403   28.1640   -1.5833 H       1  UNL1        0.0000
     54 H          -0.2776   27.3155   -0.9354 H       1  UNL1        0.0000
     55 C           3.4865   26.1778   -5.5342 C.3     1  UNL1        0.0000
     56 H           2.6509   26.1281   -6.2360 H       1  UNL1        0.0000
     57 H           4.4134   26.1698   -6.1114 H       1  UNL1        0.0000
     58 C           3.4211   27.4843   -4.7409 C.3     1  UNL1        0.0000
     59 H           3.4711   28.3357   -5.4156 H       1  UNL1        0.0000
     60 H           4.2550   27.5372   -4.0451 H       1  UNL1        0.0000
     61 H           2.4930   27.5453   -4.1778 H       1  UNL1        0.0000
     62 C           6.7366   24.9238   -4.9151 C.3     1  UNL1        0.0000
     63 H           6.3068   24.6581   -5.8866 H       1  UNL1        0.0000
     64 H           7.2390   24.0433   -4.5054 H       1  UNL1        0.0000
     65 H           7.4598   25.7288   -5.0352 H       1  UNL1        0.0000
     66 SI         -0.2310   22.2131   -2.5522 Si      1  UNL1        0.0000
     67 O           1.1509   22.4123   -3.4003 O.3     1  UNL1        0.0000
     68 O           1.2473   25.7248   -2.4140 O.2     1  UNL1        0.0000
     69 O          -0.1468   27.3757   -3.0000 O.3     1  UNL1        0.0000
     70 O           5.7466   25.4255   -4.0320 O.2     1  UNL1        0.0000
@<TRIPOS>BOND
     1    47    46    1
     2    45    44    1
     3    46    44   ar
     4    46    48   ar
     5    49    48    1
     6    44    42   ar
     7    48    40   ar
     8    56    55    1
     9    57    55    1
    10    63    62    1
    11    55    58    1
    12    55     3    1
    13    59    58    1
    14    42    43    1
    15    42    41   ar
    16    37    36    1
    17    40    41   ar
    18    40     2    1
    19    65    62    1
    20    39    36    1
    21    62    64    1
    22    62    70    1
    23    38    36    1
    24    58    61    1
    25    58    60    1
    26    36    27    1
    27     3     2    2
    28     3     4    1
    29    41    50    1
    30     2     1    1
    31    21    19    1
    32    70     4    1
    33     4     5    2
    34     1    67    1
    35     1    18    1
    36    30    28    1
    37    67    66    1
    38    50    69    1
    39    50    68    2
    40    31    28    1
    41    27    28    1
    42    27    66    1
    43    27    32    1
    44    19    20    1
    45    19    22    1
    46    19    66    1
    47    69    51    1
    48     5    18    1
    49     5     6    1
    50    28    29    1
    51     7     6    1
    52    18    15    1
    53    33    32    1
    54    66    23    1
    55    34    32    1
    56    32    35    1
    57    14    12    1
    58     6     8    1
    59     6     9    1
    60    16    15    1
    61    15    12    1
    62    15    17    1
    63    52    51    1
    64    51    53    1
    65    51    54    1
    66    12     9    1
    67    12    13    1
    68     9    10    1
    69     9    11    1
    70    23    24    1
    71    23    25    1
    72    23    26    1
