@<TRIPOS>MOLECULE
1,2,3,4,5,6
 38 39 0 0 0
SMALL
GASTEIGER

@<TRIPOS>ATOM
      1 C           2.0029    2.5002    4.3195 C.3     1  UNL1        0.0000
      2 C           1.3480    2.1046    5.4961 C.3     1  UNL1        0.0000
      3 C           2.0842    1.5121    6.5310 C.2     1  UNL1        0.0000
      4 C           3.4714    1.3582    6.4217 C.2     1  UNL1        0.0000
      5 C           4.1228    1.7785    5.2510 C.3     1  UNL1        0.0000
      6 C           3.4003    2.3820    4.2187 C.3     1  UNL1        0.0000
      7 C           1.2439    3.1474    3.1830 C.3     1  UNL1        0.0000
      8 O           1.7591    2.6442    1.9848 O.3     1  UNL1        0.0000
      9 C           0.6511    6.7508    4.2070 C.ar    1  UNL1        0.0000
     10 C           0.4982    5.3827    4.0698 C.ar    1  UNL1        0.0000
     11 H           0.2867    2.2863    5.6163 H       1  UNL1        0.0000
     12 H           1.5866    1.2462    7.4568 H       1  UNL1        0.0000
     13 H           4.0427    0.9631    7.2520 H       1  UNL1        0.0000
     14 H           5.2040    1.7236    5.1906 H       1  UNL1        0.0000
     15 H           3.9030    2.7671    3.3425 H       1  UNL1        0.0000
     16 H           0.1782    2.8887    3.2667 H       1  UNL1        0.0000
     17 H          -0.6425    0.8465    1.0933 H       1  UNL1        0.0000
     18 H          -1.3944    2.4315    1.1897 H       1  UNL1        0.0000
     19 H          -1.1335    1.6788   -0.3665 H       1  UNL1        0.0000
     20 H           3.2523    2.0495   -0.5055 H       1  UNL1        0.0000
     21 H           2.3748    0.5981   -0.0638 H       1  UNL1        0.0000
     22 H           1.9355    1.4837   -1.5129 H       1  UNL1        0.0000
     23 H           1.7831    4.8804   -0.3241 H       1  UNL1        0.0000
     24 SI          1.0284    2.6190    0.5100 Si      1  UNL1        0.0000
     25 C          -0.6994    1.8211    0.6176 C.3     1  UNL1        0.0000
     26 C           2.2689    1.5912   -0.4869 C.3     1  UNL1        0.0000
     27 C           0.8244    4.3873   -0.1912 C.3     1  UNL1        0.0000
     28 C           1.3936    4.6513    3.3009 C.ar    1  UNL1        0.0000
     29 C           2.4450    5.3054    2.6753 C.ar    1  UNL1        0.0000
     30 C           2.5947    6.6740    2.8090 C.ar    1  UNL1        0.0000
     31 C           1.6997    7.3994    3.5767 C.ar    1  UNL1        0.0000
     32 H           0.3324    4.3715   -1.1583 H       1  UNL1        0.0000
     33 H           0.2289    5.0142    0.4682 H       1  UNL1        0.0000
     34 H           3.1307    4.7371    2.0661 H       1  UNL1        0.0000
     35 H           3.4119    7.1758    2.3123 H       1  UNL1        0.0000
     36 H           1.8158    8.4678    3.6810 H       1  UNL1        0.0000
     37 H          -0.0530    7.3125    4.8030 H       1  UNL1        0.0000
     38 H          -0.3260    4.8807    4.5569 H       1  UNL1        0.0000
@<TRIPOS>BOND
     1    22    26    1
     2    32    27    1
     3    20    26    1
     4    26    21    1
     5    26    24    1
     6    19    25    1
     7    23    27    1
     8    27    33    1
     9    27    24    1
    10    24    25    1
    11    24     8    1
    12    25    17    1
    13    25    18    1
    14     8     7    1
    15    34    29    1
    16    35    30    1
    17    29    30   ar
    18    29    28   ar
    19    30    31   ar
    20     7    16    1
    21     7    28    1
    22     7     1    1
    23    28    10   ar
    24    15     6    1
    25    31    36    1
    26    31     9   ar
    27    10     9   ar
    28    10    38    1
    29     9    37    1
    30     6     1    1
    31     6     5    1
    32     1     2    1
    33    14     5    1
    34     5     4    1
    35     2    11    1
    36     2     3    1
    37     4     3    2
    38     4    13    1
    39     3    12    1
