@<TRIPOS>MOLECULE
2,3,5,7,9,11
 21 21 0 0 0
SMALL
GASTEIGER

@<TRIPOS>ATOM
      1 SI          6.4505    3.6427   15.3766 Si      1  UNL1        0.0000
      2 C           6.6730    3.3027   17.2134 C.3     1  UNL1        0.0000
      3 C           5.7514    3.7940   18.1745 C.3     1  UNL1        0.0000
      4 H           4.6808    3.6917   18.1295 H       1  UNL1        0.0000
      5 C           6.4752    4.2532   19.3043 C.2     1  UNL1        0.0000
      6 H           6.0499    4.5918   20.2346 H       1  UNL1        0.0000
      7 C           7.8424    4.0915   19.0354 C.2     1  UNL1        0.0000
      8 H           8.6516    4.2670   19.7241 H       1  UNL1        0.0000
      9 C           7.9659    3.5399   17.7380 C.3     1  UNL1        0.0000
     10 H           8.8878    3.2468   17.2668 H       1  UNL1        0.0000
     11 C           6.5777    5.5022   15.5580 C.3     1  UNL1        0.0000
     12 H           5.6773    6.0525   15.3005 H       1  UNL1        0.0000
     13 H           7.4035    5.9245   14.9931 H       1  UNL1        0.0000
     14 C           7.9254    2.9329   14.4078 C.3     1  UNL1        0.0000
     15 H           7.7843    3.0657   13.3413 H       1  UNL1        0.0000
     16 H           8.0595    1.8732   14.5952 H       1  UNL1        0.0000
     17 H           8.8414    3.4426   14.6862 H       1  UNL1        0.0000
     18 C           4.8102    2.9539   14.6973 C.3     1  UNL1        0.0000
     19 H           3.9715    3.1936   15.3402 H       1  UNL1        0.0000
     20 H           4.8520    1.8751   14.5966 H       1  UNL1        0.0000
     21 H           4.6049    3.3705   13.7180 H       1  UNL1        0.0000
@<TRIPOS>BOND
     1    15    14    1
     2    21    18    1
     3    14    16    1
     4    14    17    1
     5    14     1    1
     6    20    18    1
     7    18    19    1
     8    18     1    1
     9    13    11    1
    10    12    11    1
    11     1    11    1
    12     1     2    1
    13     2     9    1
    14     2     3    1
    15    10     9    1
    16     9     7    1
    17     4     3    1
    18     3     5    1
    19     7     5    2
    20     7     8    1
    21     5     6    1
