@<TRIPOS>MOLECULE
14,20,29,37,38,40
 54 56 0 0 0
SMALL
GASTEIGER

@<TRIPOS>ATOM
      1 SI         -1.9640    3.5155    6.4462 Si      1  UNL1        0.0000
      2 C           3.1056   -1.8291    0.3053 C.3     1  UNL1        0.0000
      3 H           3.2609   -0.9097   -0.2510 H       1  UNL1        0.0000
      4 H           3.9841   -2.4501    0.1363 H       1  UNL1        0.0000
      5 O           1.8278   -0.1213    3.3538 O.2     1  UNL1        0.0000
      6 C          -2.2967    5.0572    5.3790 C.3     1  UNL1        0.0000
      7 H          -2.9065    5.7817    5.9092 H       1  UNL1        0.0000
      8 H          -2.8154    4.8065    4.4586 H       1  UNL1        0.0000
      9 H          -1.3644    5.5427    5.1018 H       1  UNL1        0.0000
     10 C           4.2138   -1.1914    2.5226 C.3     1  UNL1        0.0000
     11 H           4.5637   -0.2273    2.1612 H       1  UNL1        0.0000
     12 H           4.9903   -1.9291    2.3350 H       1  UNL1        0.0000
     13 H           4.0500   -1.1159    3.5934 H       1  UNL1        0.0000
     14 C           0.4717    2.0040    5.9490 C.3     1  UNL1        0.0000
     15 H           0.7570    2.2670    6.9607 H       1  UNL1        0.0000
     16 C           1.9040    0.6731    1.0799 C.3     1  UNL1        0.0000
     17 H           2.9214    1.0545    1.1161 H       1  UNL1        0.0000
     18 H           1.2490    1.4764    1.4140 H       1  UNL1        0.0000
     19 H           1.6444    0.4361    0.0534 H       1  UNL1        0.0000
     20 C          -1.1278    1.9761    4.1682 C.3     1  UNL1        0.0000
     21 H          -2.1084    2.2145    3.7701 H       1  UNL1        0.0000
     22 C          -3.5727    2.5352    6.7749 C.3     1  UNL1        0.0000
     23 H          -4.2818    3.1458    7.3242 H       1  UNL1        0.0000
     24 H          -3.3895    1.6395    7.3614 H       1  UNL1        0.0000
     25 H          -4.0541    2.2297    5.8507 H       1  UNL1        0.0000
     26 C           0.5159   -1.4143    1.6769 C.3     1  UNL1        0.0000
     27 H          -0.1066   -1.5314    2.5643 H       1  UNL1        0.0000
     28 H          -0.0944   -0.9787    0.8849 H       1  UNL1        0.0000
     29 C          -0.2990    1.1274    3.4057 C.2     1  UNL1        0.0000
     30 H          -0.6618    0.7546    2.4582 H       1  UNL1        0.0000
     31 C          -1.1346    4.0057    8.0892 C.3     1  UNL1        0.0000
     32 H          -1.7815    4.6675    8.6556 H       1  UNL1        0.0000
     33 H          -0.2024    4.5343    7.9142 H       1  UNL1        0.0000
     34 H          -0.9230    3.1457    8.7181 H       1  UNL1        0.0000
     35 C           1.1027   -2.7658    1.2597 C.3     1  UNL1        0.0000
     36 H           0.3675   -3.5700    1.2533 H       1  UNL1        0.0000
     37 C          -0.7943    2.3935    5.4622 C.3     1  UNL1        0.0000
     38 C           1.3254    1.1990    5.1982 C.3     1  UNL1        0.0000
     39 H           2.2599    0.8341    5.6063 H       1  UNL1        0.0000
     40 C           0.9430    0.7286    3.9152 C.2     1  UNL1        0.0000
     41 C           1.8548   -3.0339    3.7119 C.3     1  UNL1        0.0000
     42 H           1.1487   -3.8542    3.8325 H       1  UNL1        0.0000
     43 H           1.3984   -2.1293    4.0909 H       1  UNL1        0.0000
     44 H           2.7259   -3.2461    4.3274 H       1  UNL1        0.0000
     45 C           1.7680   -0.5540    1.9861 C.3     1  UNL1        0.0000
     46 C           2.9331   -1.5902    1.8157 C.3     1  UNL1        0.0000
     47 C           3.1203   -4.1820    1.9749 C.3     1  UNL1        0.0000
     48 H           2.5655   -5.0618    2.2965 H       1  UNL1        0.0000
     49 H           4.0421   -4.1388    2.5508 H       1  UNL1        0.0000
     50 H           3.3758   -4.3185    0.9313 H       1  UNL1        0.0000
     51 C           1.8086   -2.5604   -0.0886 C.3     1  UNL1        0.0000
     52 H           2.0086   -3.5109   -0.5819 H       1  UNL1        0.0000
     53 H           1.1928   -1.9680   -0.7657 H       1  UNL1        0.0000
     54 C           2.2751   -2.9341    2.2443 C.3     1  UNL1        0.0000
@<TRIPOS>BOND
     1    53    51    1
     2    52    51    1
     3     3     2    1
     4    51     2    1
     5    51    35    1
     6    19    16    1
     7     4     2    1
     8     2    46    1
     9    28    26    1
    10    50    47    1
    11    16    17    1
    12    16    18    1
    13    16    45    1
    14    36    35    1
    15    35    26    1
    16    35    54    1
    17    26    45    1
    18    26    27    1
    19    46    45    1
    20    46    54    1
    21    46    10    1
    22    47    54    1
    23    47    48    1
    24    47    49    1
    25    45     5    1
    26    11    10    1
    27    54    41    1
    28    12    10    1
    29    30    29    1
    30    10    13    1
    31     5    40    1
    32    29    40    2
    33    29    20    1
    34    41    42    1
    35    41    43    1
    36    41    44    1
    37    21    20    1
    38    40    38    1
    39    20    37    1
    40     8     6    1
    41     9     6    1
    42    38    39    1
    43    38    14    1
    44     6     7    1
    45     6     1    1
    46    37    14    1
    47    37     1    1
    48    25    22    1
    49    14    15    1
    50     1    22    1
    51     1    31    1
    52    22    23    1
    53    22    24    1
    54    33    31    1
    55    31    32    1
    56    31    34    1
