@<TRIPOS>MOLECULE
8,9,10,11,12,13
 57 60 0 0 0
SMALL
GASTEIGER

@<TRIPOS>ATOM
      1 SI          0.8329   -9.3167  -11.9496 Si      1  UNL1        0.0000
      2 O           5.2306   -5.6143   -9.9358 O.2     1  UNL1        0.0000
      3 O           3.7655   -4.9360   -6.9021 O.3     1  UNL1        0.0000
      4 O           3.6135   -3.8364   -8.8405 O.3     1  UNL1        0.0000
      5 C           1.3812  -10.0418  -13.6230 C.3     1  UNL1        0.0000
      6 C           0.6098  -10.7094  -10.6692 C.3     1  UNL1        0.0000
      7 C          -0.7727   -8.2944  -12.1450 C.3     1  UNL1        0.0000
      8 C           4.2269   -6.4477  -10.2961 C.2     1  UNL1        0.0000
      9 C           4.2131   -6.8254  -11.6573 C.3     1  UNL1        0.0000
     10 C           3.2152   -7.6720  -12.1392 C.3     1  UNL1        0.0000
     11 C           2.1865   -8.1561  -11.3073 C.3     1  UNL1        0.0000
     12 C           2.2367   -7.7883   -9.9536 C.3     1  UNL1        0.0000
     13 C           3.2208   -6.9238   -9.4443 C.2     1  UNL1        0.0000
     14 C           5.4889   -5.4042   -8.5677 C.3     1  UNL1        0.0000
     15 C           6.9004   -4.8117   -8.3547 C.3     1  UNL1        0.0000
     16 C           7.1745   -4.9781   -6.8474 C.3     1  UNL1        0.0000
     17 C           6.2562   -3.9300   -6.1894 C.3     1  UNL1        0.0000
     18 C           5.5543   -3.2860   -7.3915 C.3     1  UNL1        0.0000
     19 C           4.5520   -4.3446   -7.9157 C.3     1  UNL1        0.0000
     20 C           6.6527   -3.2844   -8.4734 C.3     1  UNL1        0.0000
     21 C           6.1787   -2.8140   -9.8466 C.3     1  UNL1        0.0000
     22 C           7.8595   -2.4185   -8.1078 C.3     1  UNL1        0.0000
     23 C           7.9507   -5.4366   -9.2502 C.3     1  UNL1        0.0000
     24 C           2.6254   -4.1217   -6.7447 C.3     1  UNL1        0.0000
     25 C           2.4718   -3.4326   -8.1170 C.3     1  UNL1        0.0000
     26 H           0.6823  -10.8021  -13.9561 H       1  UNL1        0.0000
     27 H           2.3590  -10.5082  -13.5445 H       1  UNL1        0.0000
     28 H           1.4296   -9.2869  -14.4022 H       1  UNL1        0.0000
     29 H          -0.0235  -11.5006  -11.0575 H       1  UNL1        0.0000
     30 H           0.1502  -10.3501   -9.7534 H       1  UNL1        0.0000
     31 H           1.5682  -11.1494  -10.4055 H       1  UNL1        0.0000
     32 H          -1.5853   -8.9254  -12.4903 H       1  UNL1        0.0000
     33 H          -0.6541   -7.4902  -12.8656 H       1  UNL1        0.0000
     34 H          -1.0825   -7.8486  -11.2043 H       1  UNL1        0.0000
     35 H           4.9563   -6.3918  -12.3140 H       1  UNL1        0.0000
     36 H           3.1893   -7.8955  -13.1995 H       1  UNL1        0.0000
     37 H           1.4340   -8.0963   -9.2920 H       1  UNL1        0.0000
     38 H           3.1650   -6.5938   -8.4160 H       1  UNL1        0.0000
     39 H           5.3829   -6.3549   -8.0282 H       1  UNL1        0.0000
     40 H           6.9436   -5.9893   -6.5156 H       1  UNL1        0.0000
     41 H           8.2255   -4.7948   -6.6296 H       1  UNL1        0.0000
     42 H           5.5351   -4.3911   -5.5161 H       1  UNL1        0.0000
     43 H           6.8161   -3.1857   -5.6255 H       1  UNL1        0.0000
     44 H           5.0853   -2.3251   -7.1842 H       1  UNL1        0.0000
     45 H           5.9055   -1.7614   -9.7958 H       1  UNL1        0.0000
     46 H           5.3212   -3.3714  -10.2008 H       1  UNL1        0.0000
     47 H           6.9843   -2.9218  -10.5692 H       1  UNL1        0.0000
     48 H           7.5490   -1.3780   -8.0340 H       1  UNL1        0.0000
     49 H           8.6095   -2.4898   -8.8919 H       1  UNL1        0.0000
     50 H           8.3241   -2.6991   -7.1704 H       1  UNL1        0.0000
     51 H           8.0076   -6.5070   -9.0659 H       1  UNL1        0.0000
     52 H           8.9243   -4.9962   -9.0510 H       1  UNL1        0.0000
     53 H           7.6975   -5.2827  -10.2949 H       1  UNL1        0.0000
     54 H           2.7823   -3.3882   -5.9449 H       1  UNL1        0.0000
     55 H           1.7837   -4.7662   -6.4872 H       1  UNL1        0.0000
     56 H           1.5896   -3.7698   -8.6664 H       1  UNL1        0.0000
     57 H           2.4439   -2.3414   -8.0208 H       1  UNL1        0.0000
@<TRIPOS>BOND
     1    28     5    1
     2    26     5    1
     3     5    27    1
     4     5     1    1
     5    36    10    1
     6    33     7    1
     7    32     7    1
     8    35     9    1
     9     7     1    1
    10     7    34    1
    11    10     9    1
    12    10    11    1
    13     1    11    1
    14     1     6    1
    15     9     8    1
    16    11    12    1
    17    29     6    1
    18     6    31    1
    19     6    30    1
    20    47    21    1
    21     8     2    1
    22     8    13    2
    23    53    23    1
    24    46    21    1
    25    12    13    1
    26    12    37    1
    27     2    14    1
    28    21    45    1
    29    21    20    1
    30    13    38    1
    31    23    51    1
    32    23    52    1
    33    23    15    1
    34    49    22    1
    35     4    25    1
    36     4    19    1
    37    56    25    1
    38    14    15    1
    39    14    39    1
    40    14    19    1
    41    20    15    1
    42    20    22    1
    43    20    18    1
    44    15    16    1
    45    25    57    1
    46    25    24    1
    47    22    48    1
    48    22    50    1
    49    19    18    1
    50    19     3    1
    51    18    44    1
    52    18    17    1
    53     3    24    1
    54    16    41    1
    55    16    40    1
    56    16    17    1
    57    24    55    1
    58    24    54    1
    59    17    43    1
    60    17    42    1
