@<TRIPOS>MOLECULE
6,7,8,9,10,11
 61 64 0 0 0
SMALL
GASTEIGER

@<TRIPOS>ATOM
      1 SI          5.9495   13.3541   22.8433 Si      1  UNL1        0.0000
      2 O           2.9730    9.1250   19.6170 O.2     1  UNL1        0.0000
      3 C           7.3780   14.0425   21.7885 C.3     1  UNL1        0.0000
      4 C           6.6161   12.5681   24.4441 C.3     1  UNL1        0.0000
      5 C           4.6601   14.7093   23.2432 C.3     1  UNL1        0.0000
      6 C           3.7073   10.0889   20.2170 C.2     1  UNL1        0.0000
      7 C           4.1245    9.7886   21.5411 C.3     1  UNL1        0.0000
      8 C           4.7549   10.7529   22.3263 C.3     1  UNL1        0.0000
      9 C           5.0750   12.0266   21.8063 C.3     1  UNL1        0.0000
     10 C           4.7602   12.2639   20.4654 C.3     1  UNL1        0.0000
     11 C           4.0543   11.3274   19.6782 C.2     1  UNL1        0.0000
     12 C           2.4738    9.3046   18.2812 C.3     1  UNL1        0.0000
     13 C           3.6661    9.4863   17.3547 C.ar    1  UNL1        0.0000
     14 C           3.6732   10.3257   16.2454 C.ar    1  UNL1        0.0000
     15 C           4.8059   10.4504   15.4599 C.ar    1  UNL1        0.0000
     16 C           5.9533    9.7390   15.7625 C.ar    1  UNL1        0.0000
     17 C           5.9556    8.8898   16.8541 C.ar    1  UNL1        0.0000
     18 C           4.8238    8.7661   17.6395 C.ar    1  UNL1        0.0000
     19 C           1.6376    8.0233   17.9307 C.3     1  UNL1        0.0000
     20 C           1.2920    8.1427   16.4331 C.3     1  UNL1        0.0000
     21 C           0.2414    9.2681   16.3868 C.3     1  UNL1        0.0000
     22 C           0.1039    9.6628   17.8618 C.3     1  UNL1        0.0000
     23 C           1.3844   10.4083   18.2529 C.3     1  UNL1        0.0000
     24 C           0.2576    8.3132   18.5866 C.3     1  UNL1        0.0000
     25 C           0.2357    8.4122   20.1122 C.3     1  UNL1        0.0000
     26 C          -0.8351    7.3007   18.2303 C.3     1  UNL1        0.0000
     27 C           2.3118    6.7154   18.2920 C.3     1  UNL1        0.0000
     28 H           8.0292   14.6797   22.3782 H       1  UNL1        0.0000
     29 H           7.0181   14.6342   20.9522 H       1  UNL1        0.0000
     30 H           7.9803   13.2331   21.3833 H       1  UNL1        0.0000
     31 H           7.1798   13.2961   25.0183 H       1  UNL1        0.0000
     32 H           7.2830   11.7406   24.2216 H       1  UNL1        0.0000
     33 H           5.8213   12.1984   25.0855 H       1  UNL1        0.0000
     34 H           5.1182   15.5128   23.8104 H       1  UNL1        0.0000
     35 H           3.8355   14.3210   23.8343 H       1  UNL1        0.0000
     36 H           4.2406   15.1442   22.3408 H       1  UNL1        0.0000
     37 H           3.8090    8.8409   21.9622 H       1  UNL1        0.0000
     38 H           4.9395   10.5408   23.3725 H       1  UNL1        0.0000
     39 H           4.9532   13.2408   20.0363 H       1  UNL1        0.0000
     40 H           3.7451   11.6061   18.6808 H       1  UNL1        0.0000
     41 H           2.7961   10.8922   15.9704 H       1  UNL1        0.0000
     42 H           4.7866   11.1111   14.6053 H       1  UNL1        0.0000
     43 H           6.8364    9.8457   15.1522 H       1  UNL1        0.0000
     44 H           6.8378    8.3215   17.1034 H       1  UNL1        0.0000
     45 H           4.8393    8.0941   18.4832 H       1  UNL1        0.0000
     46 H           2.1724    8.3702   15.8357 H       1  UNL1        0.0000
     47 H           0.8941    7.1977   16.0664 H       1  UNL1        0.0000
     48 H          -0.7095    8.9230   15.9830 H       1  UNL1        0.0000
     49 H           0.5656   10.1103   15.7761 H       1  UNL1        0.0000
     50 H          -0.8025   10.2243   18.0866 H       1  UNL1        0.0000
     51 H           1.2866   10.8554   19.2434 H       1  UNL1        0.0000
     52 H           1.6035   11.2143   17.5555 H       1  UNL1        0.0000
     53 H          -0.7644    8.6940   20.4387 H       1  UNL1        0.0000
     54 H           0.9366    9.1338   20.5105 H       1  UNL1        0.0000
     55 H           0.4732    7.4436   20.5460 H       1  UNL1        0.0000
     56 H          -1.8033    7.7017   18.5248 H       1  UNL1        0.0000
     57 H          -0.6756    6.3761   18.7806 H       1  UNL1        0.0000
     58 H          -0.8806    7.0597   17.1755 H       1  UNL1        0.0000
     59 H           3.1907    6.5597   17.6706 H       1  UNL1        0.0000
     60 H           1.6253    5.8885   18.1263 H       1  UNL1        0.0000
     61 H           2.6156    6.7166   19.3350 H       1  UNL1        0.0000
@<TRIPOS>BOND
     1    42    15    1
     2    43    16    1
     3    15    16   ar
     4    15    14   ar
     5    16    17   ar
     6    49    21    1
     7    46    20    1
     8    41    14    1
     9    48    21    1
    10    47    20    1
    11    14    13   ar
    12    21    20    1
    13    21    22    1
    14    20    19    1
    15    17    44    1
    16    17    18   ar
    17    58    26    1
    18    13    18   ar
    19    13    12    1
    20    52    23    1
    21    18    45    1
    22    59    27    1
    23    22    50    1
    24    22    23    1
    25    22    24    1
    26    19    12    1
    27    19    27    1
    28    19    24    1
    29    60    27    1
    30    26    56    1
    31    26    24    1
    32    26    57    1
    33    23    12    1
    34    23    51    1
    35    12     2    1
    36    27    61    1
    37    24    25    1
    38    40    11    1
    39     2     6    1
    40    11     6    2
    41    11    10    1
    42    39    10    1
    43    25    53    1
    44    25    54    1
    45    25    55    1
    46     6     7    1
    47    10     9    1
    48    29     3    1
    49    30     3    1
    50     7    37    1
    51     7     8    1
    52     3    28    1
    53     3     1    1
    54     9     8    1
    55     9     1    1
    56     8    38    1
    57    36     5    1
    58     1     5    1
    59     1     4    1
    60     5    34    1
    61     5    35    1
    62    32     4    1
    63     4    31    1
    64     4    33    1
