@<TRIPOS>MOLECULE
1,2,4,6,7,9
 24 24 0 0 0
SMALL
GASTEIGER

@<TRIPOS>ATOM
      1 C           3.0386   12.2008    7.6533 C.2     1  UNL1       -0.0723
      2 C           2.2310   11.0743    7.8651 C.2     1  UNL1       -0.0805
      3 H           1.6773   10.9778    8.7921 H       1  UNL1        0.0575
      4 C           2.0867   10.0865    6.8535 C.3     1  UNL1       -0.0091
      5 H           1.4107    9.2563    7.0298 H       1  UNL1        0.0355
      6 C           2.6860   10.2379    5.5868 C.3     1  UNL1       -0.0098
      7 C           3.5140   11.3749    5.3869 C.3     1  UNL1       -0.0231
      8 H           3.9776   11.5250    4.4167 H       1  UNL1        0.0315
      9 C           3.6986   12.3341    6.3952 C.3     1  UNL1       -0.0097
     10 H           4.2907   13.2221    6.1987 H       1  UNL1        0.0354
     11 C           3.2260   13.2401    8.7121 C.3     1  UNL1       -0.0435
     12 H           3.1794   14.2405    8.2857 H       1  UNL1        0.0274
     13 H           4.2130   13.1098    9.1632 H       1  UNL1        0.0274
     14 H           2.4768   13.1446    9.4947 H       1  UNL1        0.0274
     15 C           2.4387    9.2538    4.4689 C.3     1  UNL1       -0.0397
     16 H           3.0422    9.5619    3.6087 H       1  UNL1        0.0301
     17 C           0.9637    9.2749    4.0568 C.3     1  UNL1       -0.0621
     18 H           0.8083    8.6188    3.2039 H       1  UNL1        0.0233
     19 H           0.6575   10.2812    3.7780 H       1  UNL1        0.0233
     20 H           0.3269    8.9344    4.8705 H       1  UNL1        0.0233
     21 C           2.8853    7.8462    4.8702 C.3     1  UNL1       -0.0621
     22 H           2.7872    7.1690    4.0256 H       1  UNL1        0.0233
     23 H           2.2791    7.4616    5.6883 H       1  UNL1        0.0233
     24 H           3.9312    7.8719    5.1751 H       1  UNL1        0.0233
@<TRIPOS>BOND
     1    18    17    1
     2    16    15    1
     3    19    17    1
     4    22    21    1
     5    17    15    1
     6    17    20    1
     7     8     7    1
     8    15    21    1
     9    15     6    1
    10    21    24    1
    11    21    23    1
    12     7     6    1
    13     7     9    1
    14     6     4    1
    15    10     9    1
    16     9     1    1
    17     4     5    1
    18     4     2    1
    19     1     2    2
    20     1    11    1
    21     2     3    1
    22    12    11    1
    23    11    13    1
    24    11    14    1
