@<TRIPOS>MOLECULE
1,2,3,4,5,12
 62 63 0 0 0
SMALL
GASTEIGER

@<TRIPOS>ATOM
      1 C           1.0218    3.7776   10.7019 C.3     1  UNL1        0.0000
      2 C           2.3519    4.1219   10.4499 C.3     1  UNL1        0.0000
      3 C           2.9687    5.0911   11.2857 C.3     1  UNL1        0.0000
      4 C           2.1789    5.8673   12.1558 C.3     1  UNL1        0.0000
      5 C           0.7622    5.6807   12.2592 C.ar    1  UNL1        0.0000
      6 C          -0.1277    6.5862   12.9040 C.ar    1  UNL1        0.0000
      7 C          -1.4210    6.1801   13.1297 C.ar    1  UNL1        0.0000
      8 H          -2.1091    6.8600   13.6105 H       1  UNL1        0.0000
      9 C          -1.8547    4.8931   12.8078 C.ar    1  UNL1        0.0000
     10 H          -2.8366    4.5750   13.1242 H       1  UNL1        0.0000
     11 C          -1.0622    4.0313   12.0870 C.ar    1  UNL1        0.0000
     12 C           0.2279    4.4768   11.6869 C.ar    1  UNL1        0.0000
     13 O           0.3939    2.9127    9.8510 O.3     1  UNL1        0.0000
     14 SI         -0.4141    3.3195    8.4680 Si      1  UNL1        0.0000
     15 C           0.5798    4.5708    7.4122 C.3     1  UNL1        0.0000
     16 H           1.3640    4.1072    6.8210 H       1  UNL1        0.0000
     17 H           1.0498    5.3196    8.0461 H       1  UNL1        0.0000
     18 H          -0.0693    5.0978    6.7202 H       1  UNL1        0.0000
     19 C          -2.0786    4.2021    8.8013 C.3     1  UNL1        0.0000
     20 H          -2.8790    3.5155    9.0596 H       1  UNL1        0.0000
     21 H          -2.4043    4.7469    7.9206 H       1  UNL1        0.0000
     22 H          -1.9933    4.9204    9.6129 H       1  UNL1        0.0000
     23 C          -0.6344    1.6153    7.6161 C.3     1  UNL1        0.0000
     24 C          -1.3812    1.8195    6.2981 C.3     1  UNL1        0.0000
     25 H          -2.3578    2.2641    6.4720 H       1  UNL1        0.0000
     26 H          -1.5268    0.8663    5.7915 H       1  UNL1        0.0000
     27 H          -0.8233    2.4753    5.6343 H       1  UNL1        0.0000
     28 C           0.7183    0.9617    7.3211 C.3     1  UNL1        0.0000
     29 H           1.2729    0.7976    8.2414 H       1  UNL1        0.0000
     30 H           1.3170    1.5811    6.6564 H       1  UNL1        0.0000
     31 H           0.5714   -0.0033    6.8371 H       1  UNL1        0.0000
     32 C          -1.4427    0.6610    8.4985 C.3     1  UNL1        0.0000
     33 H          -0.9438    0.5041    9.4511 H       1  UNL1        0.0000
     34 H          -1.5507   -0.3052    8.0067 H       1  UNL1        0.0000
     35 H          -2.4398    1.0528    8.6870 H       1  UNL1        0.0000
     36 C           3.1202    3.3733    9.3914 C.3     1  UNL1        0.0000
     37 H           2.4381    3.0931    8.5897 H       1  UNL1        0.0000
     38 H           3.8994    4.0054    8.9636 H       1  UNL1        0.0000
     39 C           3.7429    2.0904    9.9496 C.3     1  UNL1        0.0000
     40 H           4.2705    1.5593    9.1604 H       1  UNL1        0.0000
     41 H           2.9670    1.4404   10.3482 H       1  UNL1        0.0000
     42 H           4.4441    2.3079   10.7524 H       1  UNL1        0.0000
     43 C           4.4098    5.4919   11.0882 C.3     1  UNL1        0.0000
     44 H           5.0017    4.6445   10.7433 H       1  UNL1        0.0000
     45 H           4.8292    5.8221   12.0392 H       1  UNL1        0.0000
     46 C           4.5086    6.6485   10.0893 C.3     1  UNL1        0.0000
     47 H           5.5488    6.9247    9.9344 H       1  UNL1        0.0000
     48 H           3.9735    7.5136   10.4738 H       1  UNL1        0.0000
     49 H           4.0765    6.3750    9.1281 H       1  UNL1        0.0000
     50 O           2.8083    6.8980   12.8353 O.3     1  UNL1        0.0000
     51 C           3.1361    6.6095   14.1838 C.3     1  UNL1        0.0000
     52 H           3.6007    7.5119   14.5775 H       1  UNL1        0.0000
     53 H           3.8370    5.7691   14.2488 H       1  UNL1        0.0000
     54 H           2.2486    6.3623   14.7729 H       1  UNL1        0.0000
     55 C           0.2722    7.9768   13.3016 C.3     1  UNL1        0.0000
     56 H          -0.6077    8.6175   13.3091 H       1  UNL1        0.0000
     57 H           1.0055    8.3905   12.6151 H       1  UNL1        0.0000
     58 H           0.7019    7.9935   14.3026 H       1  UNL1        0.0000
     59 C          -1.5337    2.6305   11.8451 C.3     1  UNL1        0.0000
     60 H          -2.2782    2.3713   12.5948 H       1  UNL1        0.0000
     61 H          -0.7036    1.9321   11.9230 H       1  UNL1        0.0000
     62 H          -1.9832    2.5112   10.8640 H       1  UNL1        0.0000
@<TRIPOS>BOND
     1    27    24    1
     2    26    24    1
     3    24    25    1
     4    24    23    1
     5    30    28    1
     6    18    15    1
     7    16    15    1
     8    31    28    1
     9    28    23    1
    10    28    29    1
    11    15    17    1
    12    15    14    1
    13    23    14    1
    14    23    32    1
    15    21    19    1
    16    34    32    1
    17    14    19    1
    18    14    13    1
    19    32    35    1
    20    32    33    1
    21    37    36    1
    22    19    20    1
    23    19    22    1
    24    38    36    1
    25    49    46    1
    26    40    39    1
    27    36    39    1
    28    36     2    1
    29    13     1    1
    30    47    46    1
    31    39    41    1
    32    39    42    1
    33    46    48    1
    34    46    43    1
    35     2     1    1
    36     2     3    1
    37     1    12    1
    38    44    43    1
    39    62    59    1
    40    43     3    1
    41    43    45    1
    42     3     4    1
    43    12    11   ar
    44    12     5   ar
    45    59    61    1
    46    59    11    1
    47    59    60    1
    48    11     9   ar
    49     4     5    1
    50     4    50    1
    51     5     6   ar
    52    57    55    1
    53     9    10    1
    54     9     7   ar
    55    50    51    1
    56     6     7   ar
    57     6    55    1
    58     7     8    1
    59    55    56    1
    60    55    58    1
    61    51    53    1
    62    51    52    1
    63    51    54    1
