@<TRIPOS>MOLECULE
1,2,3,5,6,15
 56 57 0 0 0
SMALL
GASTEIGER

@<TRIPOS>ATOM
      1 C           4.3239    3.0225    3.7403 C.2     1  UNL1        0.0000
      2 C           4.3753    3.7131    2.5283 C.2     1  UNL1        0.0000
      3 C           4.1284    5.1115    2.5043 C.3     1  UNL1        0.0000
      4 H           4.2533    5.6342    1.5665 H       1  UNL1        0.0000
      5 C           3.8233    5.8187    3.6584 C.3     1  UNL1        0.0000
      6 C           3.8194    5.1372    4.9245 C.ar    1  UNL1        0.0000
      7 C           3.5886    5.8397    6.1248 C.ar    1  UNL1        0.0000
      8 H           3.3954    6.8995    6.0611 H       1  UNL1        0.0000
      9 C           3.6203    5.1973    7.3340 C.ar    1  UNL1        0.0000
     10 H           3.4336    5.7441    8.2452 H       1  UNL1        0.0000
     11 C           3.9168    3.8307    7.3901 C.ar    1  UNL1        0.0000
     12 H           3.9693    3.3344    8.3473 H       1  UNL1        0.0000
     13 C           4.1513    3.1209    6.2420 C.ar    1  UNL1        0.0000
     14 H           4.4044    2.0782    6.2973 H       1  UNL1        0.0000
     15 C           4.0840    3.7309    4.9728 C.ar    1  UNL1        0.0000
     16 O           4.6625    1.7123    3.7081 O.2     1  UNL1        0.0000
     17 SI          4.5388    0.2108    4.3560 Si      1  UNL1        0.0000
     18 C           5.3293   -0.8647    2.9977 C.3     1  UNL1        0.0000
     19 H           4.9058   -0.6936    2.0149 H       1  UNL1        0.0000
     20 H           5.2062   -1.9163    3.2330 H       1  UNL1        0.0000
     21 H           6.3964   -0.6791    2.9268 H       1  UNL1        0.0000
     22 C           5.6504   -0.0149    5.9023 C.3     1  UNL1        0.0000
     23 H           5.1124    0.0318    6.8449 H       1  UNL1        0.0000
     24 H           6.4405    0.7309    5.9357 H       1  UNL1        0.0000
     25 H           6.1314   -0.9876    5.8659 H       1  UNL1        0.0000
     26 C           2.7245   -0.3400    4.7159 C.3     1  UNL1        0.0000
     27 C           2.0776    0.4820    5.8345 C.3     1  UNL1        0.0000
     28 H           2.6107    0.3581    6.7752 H       1  UNL1        0.0000
     29 H           1.0494    0.1571    5.9873 H       1  UNL1        0.0000
     30 H           2.0537    1.5403    5.5819 H       1  UNL1        0.0000
     31 C           1.8740   -0.1845    3.4517 C.3     1  UNL1        0.0000
     32 H           2.2441   -0.8276    2.6561 H       1  UNL1        0.0000
     33 H           1.8785    0.8478    3.1035 H       1  UNL1        0.0000
     34 H           0.8410   -0.4614    3.6565 H       1  UNL1        0.0000
     35 C           2.7027   -1.8131    5.1376 C.3     1  UNL1        0.0000
     36 H           3.1016   -2.4489    4.3516 H       1  UNL1        0.0000
     37 H           1.6809   -2.1288    5.3421 H       1  UNL1        0.0000
     38 H           3.2939   -1.9711    6.0365 H       1  UNL1        0.0000
     39 SI          4.8773    2.8141    0.9284 Si      1  UNL1        0.0000
     40 C           3.5560    1.5238    0.4727 C.3     1  UNL1        0.0000
     41 H           2.5907    1.9978    0.3172 H       1  UNL1        0.0000
     42 H           3.4314    0.7828    1.2524 H       1  UNL1        0.0000
     43 H           3.8210    1.0053   -0.4438 H       1  UNL1        0.0000
     44 C           6.6348    2.1069    1.1633 C.3     1  UNL1        0.0000
     45 H           7.3820    2.8955    1.1757 H       1  UNL1        0.0000
     46 H           6.8845    1.4338    0.3497 H       1  UNL1        0.0000
     47 H           6.7191    1.5532    2.0909 H       1  UNL1        0.0000
     48 C           4.9369    4.1019   -0.4831 C.3     1  UNL1        0.0000
     49 H           5.6542    4.8964   -0.2985 H       1  UNL1        0.0000
     50 H           3.9644    4.5543   -0.6525 H       1  UNL1        0.0000
     51 H           5.2300    3.6175   -1.4086 H       1  UNL1        0.0000
     52 O           3.6255    7.1689    3.7117 O.3     1  UNL1        0.0000
     53 C           3.2394    7.8202    2.5211 C.3     1  UNL1        0.0000
     54 H           2.9188    8.8161    2.8220 H       1  UNL1        0.0000
     55 H           2.4054    7.2944    2.0432 H       1  UNL1        0.0000
     56 H           4.0744    7.9104    1.8189 H       1  UNL1        0.0000
@<TRIPOS>BOND
     1    51    48    1
     2    50    48    1
     3    48    49    1
     4    48    39    1
     5    43    40    1
     6    41    40    1
     7    46    44    1
     8    40    39    1
     9    40    42    1
    10    39    44    1
    11    39     2    1
    12    44    45    1
    13    44    47    1
    14     4     3    1
    15    56    53    1
    16    19    18    1
    17    55    53    1
    18     3     2    1
    19     3     5    1
    20    53    54    1
    21    53    52    1
    22     2     1    2
    23    32    31    1
    24    21    18    1
    25    18    20    1
    26    18    17    1
    27    33    31    1
    28    31    34    1
    29    31    26    1
    30     5    52    1
    31     5     6    1
    32    16     1    1
    33    16    17    1
    34     1    15    1
    35    36    35    1
    36    17    26    1
    37    17    22    1
    38    26    35    1
    39    26    27    1
    40     6    15   ar
    41     6     7   ar
    42    15    13   ar
    43    35    37    1
    44    35    38    1
    45    30    27    1
    46    27    29    1
    47    27    28    1
    48    25    22    1
    49    22    24    1
    50    22    23    1
    51     8     7    1
    52     7     9   ar
    53    13    14    1
    54    13    11   ar
    55     9    11   ar
    56     9    10    1
    57    11    12    1
