@<TRIPOS>MOLECULE
1,2,3,4,5,12
 64 65 0 0 0
SMALL
GASTEIGER

@<TRIPOS>ATOM
      1 C           2.7725   11.1177   10.9683 C.2     1  UNL1        0.0000
      2 C           1.7499   10.2546   10.5617 C.2     1  UNL1        0.0000
      3 C           2.0571    9.1706    9.6845 C.3     1  UNL1        0.0000
      4 C           3.3760    8.9758    9.2560 C.3     1  UNL1        0.0000
      5 C           4.4316    9.8462    9.6768 C.ar    1  UNL1        0.0000
      6 C           5.7646    9.6831    9.2288 C.ar    1  UNL1        0.0000
      7 H           5.9650    8.8913    8.5253 H       1  UNL1        0.0000
      8 C           6.7589   10.5377    9.6265 C.ar    1  UNL1        0.0000
      9 C           6.4562   11.6107   10.5261 C.ar    1  UNL1        0.0000
     10 C           5.1693   11.7897   10.9609 C.ar    1  UNL1        0.0000
     11 H           4.9081   12.6084   11.6095 H       1  UNL1        0.0000
     12 C           4.1296   10.9253   10.5492 C.ar    1  UNL1        0.0000
     13 O           2.4994   12.1397   11.8182 O.2     1  UNL1        0.0000
     14 SI          2.5236   12.4477   13.4290 Si      1  UNL1        0.0000
     15 C           0.7381   12.8860   13.9331 C.3     1  UNL1        0.0000
     16 H           0.1113   12.0181   14.1157 H       1  UNL1        0.0000
     17 H           0.2591   13.4768   13.1586 H       1  UNL1        0.0000
     18 H           0.7369   13.4787   14.8416 H       1  UNL1        0.0000
     19 C           3.5999   14.0056   13.6436 C.3     1  UNL1        0.0000
     20 H           4.6628   13.7955   13.7126 H       1  UNL1        0.0000
     21 H           3.3206   14.5378   14.5465 H       1  UNL1        0.0000
     22 H           3.4510   14.6832   12.8080 H       1  UNL1        0.0000
     23 C           3.1836   10.9623   14.4827 C.3     1  UNL1        0.0000
     24 C           4.6805   10.7277   14.2548 C.3     1  UNL1        0.0000
     25 H           5.2601   11.6006   14.5458 H       1  UNL1        0.0000
     26 H           4.8914   10.5062   13.2105 H       1  UNL1        0.0000
     27 H           5.0240    9.8844   14.8542 H       1  UNL1        0.0000
     28 C           2.9658   11.2473   15.9717 C.3     1  UNL1        0.0000
     29 H           1.9093   11.3739   16.1922 H       1  UNL1        0.0000
     30 H           3.4869   12.1538   16.2693 H       1  UNL1        0.0000
     31 H           3.3437   10.4229   16.5754 H       1  UNL1        0.0000
     32 C           2.4426    9.6707   14.1210 C.3     1  UNL1        0.0000
     33 H           1.3738    9.7682   14.2990 H       1  UNL1        0.0000
     34 H           2.8081    8.8424   14.7282 H       1  UNL1        0.0000
     35 H           2.5969    9.4126   13.0743 H       1  UNL1        0.0000
     36 C           0.3587   10.5209   11.0782 C.3     1  UNL1        0.0000
     37 H           0.4207   10.6999   12.1544 H       1  UNL1        0.0000
     38 H          -0.2914    9.6633   10.9167 H       1  UNL1        0.0000
     39 C          -0.2698   11.7492   10.4169 C.3     1  UNL1        0.0000
     40 H          -1.2436   11.9504   10.8580 H       1  UNL1        0.0000
     41 H          -0.3957   11.5843    9.3497 H       1  UNL1        0.0000
     42 H           0.3635   12.6210   10.5552 H       1  UNL1        0.0000
     43 C           1.0005    8.1789    9.2641 C.3     1  UNL1        0.0000
     44 H           1.3557    7.6587    8.3724 H       1  UNL1        0.0000
     45 H           0.0830    8.7041    8.9928 H       1  UNL1        0.0000
     46 C           0.7023    7.1501   10.3607 C.3     1  UNL1        0.0000
     47 H          -0.0480    6.4441   10.0127 H       1  UNL1        0.0000
     48 H           0.3328    7.6258   11.2666 H       1  UNL1        0.0000
     49 H           1.5987    6.5921   10.6238 H       1  UNL1        0.0000
     50 O           3.6899    7.9290    8.3969 O.3     1  UNL1        0.0000
     51 C           4.2362    6.7829    9.0231 C.3     1  UNL1        0.0000
     52 H           4.6408    6.1639    8.2240 H       1  UNL1        0.0000
     53 H           3.4671    6.2168    9.5595 H       1  UNL1        0.0000
     54 H           5.0343    7.0438    9.7259 H       1  UNL1        0.0000
     55 O           8.0518   10.4732    9.2312 O.3     1  UNL1        0.0000
     56 C           8.4029    9.5277    8.2498 C.3     1  UNL1        0.0000
     57 H           9.4559    9.7034    8.0374 H       1  UNL1        0.0000
     58 H           7.8182    9.6656    7.3352 H       1  UNL1        0.0000
     59 H           8.2744    8.5028    8.6141 H       1  UNL1        0.0000
     60 O           7.5143   12.3896   10.8602 O.3     1  UNL1        0.0000
     61 C           7.2840   13.5071   11.6816 C.3     1  UNL1        0.0000
     62 H           8.2469   14.0061   11.7751 H       1  UNL1        0.0000
     63 H           6.9349   13.2069   12.6755 H       1  UNL1        0.0000
     64 H           6.5599   14.1939   11.2325 H       1  UNL1        0.0000
@<TRIPOS>BOND
     1    58    56    1
     2    57    56    1
     3    52    51    1
     4    56    59    1
     5    56    55    1
     6    44    43    1
     7    50    51    1
     8    50     4    1
     9     7     6    1
    10    45    43    1
    11    51    53    1
    12    51    54    1
    13     6     8   ar
    14     6     5   ar
    15    55     8    1
    16     4     5    1
    17     4     3    1
    18    43     3    1
    19    43    46    1
    20    41    39    1
    21     8     9   ar
    22     5    12   ar
    23     3     2    1
    24    47    46    1
    25    46    49    1
    26    46    48    1
    27    39    42    1
    28    39    40    1
    29    39    36    1
    30     9    60    1
    31     9    10   ar
    32    12    10   ar
    33    12     1    1
    34     2     1    2
    35     2    36    1
    36    60    61    1
    37    38    36    1
    38    10    11    1
    39     1    13    1
    40    36    37    1
    41    64    61    1
    42    61    62    1
    43    61    63    1
    44    13    14    1
    45    22    19    1
    46    35    32    1
    47    17    15    1
    48    26    24    1
    49    14    19    1
    50    14    15    1
    51    14    23    1
    52    19    20    1
    53    19    21    1
    54    15    16    1
    55    15    18    1
    56    32    33    1
    57    32    23    1
    58    32    34    1
    59    24    23    1
    60    24    25    1
    61    24    27    1
    62    23    28    1
    63    28    29    1
    64    28    30    1
    65    28    31    1
