@<TRIPOS>MOLECULE
12,13,15,17,19,21
 65 68 0 0 0
SMALL
GASTEIGER

@<TRIPOS>ATOM
      1 C           9.1379    5.9967   11.5463 C.ar    1  UNL1        0.0000
      2 C           8.6261    4.7915   11.9952 C.ar    1  UNL1        0.0000
      3 C           8.3824    4.5991   13.3708 C.ar    1  UNL1        0.0000
      4 C           8.6801    5.6160   14.2575 C.ar    1  UNL1        0.0000
      5 C           9.0896    6.8941   13.8041 C.ar    1  UNL1        0.0000
      6 C           9.3078    7.9442   14.7293 C.ar    1  UNL1        0.0000
      7 H           9.1189    7.7501   15.7727 H       1  UNL1        0.0000
      8 C           9.7164    9.1853   14.3313 C.ar    1  UNL1        0.0000
      9 H           9.9010    9.9849   15.0293 H       1  UNL1        0.0000
     10 C           9.8236    9.4114   12.9596 C.ar    1  UNL1        0.0000
     11 O          10.0939   10.6266   12.4006 O.2     1  UNL1        0.0000
     12 C           9.9027   10.4772   11.0684 C.ar    1  UNL1        0.0000
     13 C          10.0479   11.4886   10.1065 C.3     1  UNL1        0.0000
     14 H          10.3937   12.4726   10.3925 H       1  UNL1        0.0000
     15 C           9.8182   11.1376    8.7731 C.2     1  UNL1        0.0000
     16 H          10.0019   11.8675    7.9936 H       1  UNL1        0.0000
     17 C           9.4295    9.8284    8.4196 C.2     1  UNL1        0.0000
     18 H           9.3031    9.5785    7.3732 H       1  UNL1        0.0000
     19 C           9.2287    8.8484    9.3950 C.3     1  UNL1        0.0000
     20 H           8.9650    7.8416    9.1137 H       1  UNL1        0.0000
     21 C           9.5540    9.1419   10.7406 C.ar    1  UNL1        0.0000
     22 C           9.5491    8.4354   11.9944 C.ar    1  UNL1        0.0000
     23 C           9.2684    7.1044   12.4098 C.ar    1  UNL1        0.0000
     24 O           9.5734    6.0942   10.2502 O.3     1  UNL1        0.0000
     25 SI         11.1305    5.8248    9.7674 Si      1  UNL1        0.0000
     26 C          12.2137    7.3798   10.0208 C.3     1  UNL1        0.0000
     27 H          11.9156    8.2064    9.3822 H       1  UNL1        0.0000
     28 H          13.2555    7.1652    9.8055 H       1  UNL1        0.0000
     29 H          12.1617    7.7251   11.0502 H       1  UNL1        0.0000
     30 C          11.9117    4.4505   10.8379 C.3     1  UNL1        0.0000
     31 H          11.6049    3.4543   10.5346 H       1  UNL1        0.0000
     32 H          11.6138    4.5764   11.8757 H       1  UNL1        0.0000
     33 H          12.9954    4.4800   10.8020 H       1  UNL1        0.0000
     34 C          11.0558    5.3390    7.9058 C.3     1  UNL1        0.0000
     35 C          10.4407    6.4436    7.0438 C.3     1  UNL1        0.0000
     36 H          10.9713    7.3835    7.1763 H       1  UNL1        0.0000
     37 H           9.3934    6.5908    7.2955 H       1  UNL1        0.0000
     38 H          10.4959    6.1702    5.9901 H       1  UNL1        0.0000
     39 C          12.4893    5.0991    7.4274 C.3     1  UNL1        0.0000
     40 H          12.9657    4.3128    8.0070 H       1  UNL1        0.0000
     41 H          13.0857    6.0026    7.5231 H       1  UNL1        0.0000
     42 H          12.4942    4.7996    6.3800 H       1  UNL1        0.0000
     43 C          10.2489    4.0584    7.6786 C.3     1  UNL1        0.0000
     44 H          10.6747    3.2241    8.2316 H       1  UNL1        0.0000
     45 H          10.2536    3.7956    6.6210 H       1  UNL1        0.0000
     46 H           9.2157    4.1939    7.9873 H       1  UNL1        0.0000
     47 C           8.3121    3.7366   10.9701 C.3     1  UNL1        0.0000
     48 H           8.1544    2.7662   11.4322 H       1  UNL1        0.0000
     49 H           9.1488    3.6507   10.2768 H       1  UNL1        0.0000
     50 C           7.0560    4.1287   10.1878 C.3     1  UNL1        0.0000
     51 H           6.8231    3.3710    9.4425 H       1  UNL1        0.0000
     52 H           7.2038    5.0809    9.6854 H       1  UNL1        0.0000
     53 H           6.2060    4.2294   10.8589 H       1  UNL1        0.0000
     54 C           7.8478    3.2947   13.9026 C.3     1  UNL1        0.0000
     55 H           7.0298    2.9487   13.2695 H       1  UNL1        0.0000
     56 H           7.4436    3.4760   14.8993 H       1  UNL1        0.0000
     57 C           8.9214    2.2063   13.9947 C.3     1  UNL1        0.0000
     58 H           8.4817    1.2821   14.3630 H       1  UNL1        0.0000
     59 H           9.7121    2.5029   14.6795 H       1  UNL1        0.0000
     60 H           9.3776    2.0116   13.0273 H       1  UNL1        0.0000
     61 O           8.5120    5.4236   15.6203 O.3     1  UNL1        0.0000
     62 C           9.6974    5.1198   16.3249 C.3     1  UNL1        0.0000
     63 H           9.4338    5.1324   17.3813 H       1  UNL1        0.0000
     64 H          10.4852    5.8561   16.1341 H       1  UNL1        0.0000
     65 H          10.0768    4.1270   16.0604 H       1  UNL1        0.0000
@<TRIPOS>BOND
     1    38    35    1
     2    42    39    1
     3    45    43    1
     4    35    36    1
     5    35    37    1
     6    35    34    1
     7    18    17    1
     8    39    41    1
     9    39    34    1
    10    39    40    1
    11    43    34    1
    12    43    46    1
    13    43    44    1
    14    34    25    1
    15    16    15    1
    16    17    15    2
    17    17    19    1
    18    15    13    1
    19    20    19    1
    20    27    26    1
    21    19    21    1
    22    51    50    1
    23    52    50    1
    24    25    26    1
    25    25    24    1
    26    25    30    1
    27    28    26    1
    28    26    29    1
    29    13    14    1
    30    13    12    1
    31    50    53    1
    32    50    47    1
    33    24     1    1
    34    49    47    1
    35    31    30    1
    36    21    12   ar
    37    21    22   ar
    38    33    30    1
    39    30    32    1
    40    47    48    1
    41    47     2    1
    42    12    11   ar
    43     1     2   ar
    44     1    23   ar
    45    22    23   ar
    46    22    10   ar
    47     2     3   ar
    48    11    10   ar
    49    23     5   ar
    50    10     8   ar
    51    60    57    1
    52    55    54    1
    53     3    54    1
    54     3     4   ar
    55     5     4   ar
    56     5     6   ar
    57    54    57    1
    58    54    56    1
    59    57    58    1
    60    57    59    1
    61     4    61    1
    62     8     6   ar
    63     8     9    1
    64     6     7    1
    65    61    62    1
    66    65    62    1
    67    64    62    1
    68    62    63    1
