@<TRIPOS>MOLECULE
1,3,5,7,9,11
 12 12 0 0 0
SMALL
GASTEIGER

@<TRIPOS>ATOM
      1 C           1.2936    4.8992    1.1331 C.2     1  UNL1       -0.0797
      2 H           1.9359    5.6171    1.6301 H       1  UNL1        0.0575
      3 C           1.6990    3.5591    1.0485 C.3     1  UNL1        0.0049
      4 H           2.6383    3.2450    1.4899 H       1  UNL1        0.0394
      5 C           0.9522    2.6507    0.2530 C.2     1  UNL1       -0.0797
      6 H           1.3363    1.6509    0.0824 H       1  UNL1        0.0575
      7 C          -0.1704    3.1013   -0.4517 C.2     1  UNL1       -0.0797
      8 H          -0.6673    2.4512   -1.1637 H       1  UNL1        0.0575
      9 C          -0.6246    4.4258   -0.2698 C.3     1  UNL1        0.0049
     10 H          -1.4633    4.7886   -0.8565 H       1  UNL1        0.0394
     11 C           0.1324    5.3459    0.4779 C.2     1  UNL1       -0.0797
     12 H          -0.1344    6.3964    0.4836 H       1  UNL1        0.0575
@<TRIPOS>BOND
     1     8     7    1
     2    10     9    1
     3     7     9    1
     4     7     5    2
     5     9    11    1
     6     6     5    1
     7     5     3    1
     8    11    12    1
     9    11     1    2
    10     3     1    1
    11     3     4    1
    12     1     2    1
