@<TRIPOS>MOLECULE
5,6,7,8,9,10
 47 47 0 0 0
SMALL
GASTEIGER

@<TRIPOS>ATOM
      1 SI          2.0415    5.9533    4.3387 Si      1  UNL1        0.0000
      2 O           3.8428    6.0184    1.9746 O.3     1  UNL1        0.0000
      3 O           5.2679    4.3034    1.6261 O.2     1  UNL1        0.0000
      4 N           6.0641    6.4141    1.9477 N.am    1  UNL1        0.0000
      5 C           2.7552    5.2131    1.6811 C.3     1  UNL1        0.0000
      6 C           1.7752    5.0844    2.6755 C.3     1  UNL1        0.0000
      7 C           0.6184    4.3548    2.3441 C.3     1  UNL1        0.0000
      8 C           0.4800    3.7239    1.1042 C.3     1  UNL1        0.0000
      9 C           1.4965    3.8511    0.1436 C.2     1  UNL1        0.0000
     10 C           2.6550    4.5732    0.4340 C.2     1  UNL1        0.0000
     11 C           5.1025    5.4844    1.8222 C.2     1  UNL1        0.0000
     12 C           7.4627    5.9785    2.0054 C.3     1  UNL1        0.0000
     13 C           7.6943    5.0278    3.1795 C.3     1  UNL1        0.0000
     14 C           7.9025    5.3475    0.6854 C.3     1  UNL1        0.0000
     15 C           5.7553    7.8368    2.0762 C.3     1  UNL1        0.0000
     16 C           6.0529    8.3386    3.4889 C.3     1  UNL1        0.0000
     17 C           6.4783    8.6662    1.0151 C.3     1  UNL1        0.0000
     18 C           2.0657    7.8338    4.0374 C.3     1  UNL1        0.0000
     19 C           0.5630    5.5199    5.4642 C.3     1  UNL1        0.0000
     20 C           3.6421    5.2925    5.1480 C.3     1  UNL1        0.0000
     21 H          -0.1383    4.2022    3.1045 H       1  UNL1        0.0000
     22 H          -0.3830    3.1022    0.8991 H       1  UNL1        0.0000
     23 H           1.4212    3.3164   -0.7961 H       1  UNL1        0.0000
     24 H           3.4813    4.6138   -0.2639 H       1  UNL1        0.0000
     25 H           8.0532    6.8818    2.1745 H       1  UNL1        0.0000
     26 H           7.3716    5.4868    4.1116 H       1  UNL1        0.0000
     27 H           7.1410    4.1056    3.0301 H       1  UNL1        0.0000
     28 H           8.7525    4.7921    3.2553 H       1  UNL1        0.0000
     29 H           7.3408    4.4363    0.5045 H       1  UNL1        0.0000
     30 H           7.7366    6.0352   -0.1403 H       1  UNL1        0.0000
     31 H           8.9610    5.1050    0.7296 H       1  UNL1        0.0000
     32 H           4.6837    7.9374    1.8915 H       1  UNL1        0.0000
     33 H           5.5104    7.7451    4.2207 H       1  UNL1        0.0000
     34 H           7.1161    8.2848    3.7114 H       1  UNL1        0.0000
     35 H           5.7357    9.3737    3.5812 H       1  UNL1        0.0000
     36 H           7.5507    8.7087    1.1873 H       1  UNL1        0.0000
     37 H           6.2970    8.2532    0.0261 H       1  UNL1        0.0000
     38 H           6.0906    9.6811    1.0358 H       1  UNL1        0.0000
     39 H           2.8774    8.1277    3.3815 H       1  UNL1        0.0000
     40 H           1.1399    8.1570    3.5679 H       1  UNL1        0.0000
     41 H           2.1760    8.3812    4.9685 H       1  UNL1        0.0000
     42 H          -0.3711    5.8914    5.0543 H       1  UNL1        0.0000
     43 H           0.4596    4.4508    5.6250 H       1  UNL1        0.0000
     44 H           0.6929    5.9800    6.4379 H       1  UNL1        0.0000
     45 H           3.5320    4.2549    5.4513 H       1  UNL1        0.0000
     46 H           4.4947    5.3451    4.4791 H       1  UNL1        0.0000
     47 H           3.8819    5.8679    6.0372 H       1  UNL1        0.0000
@<TRIPOS>BOND
     1    23     9    1
     2    24    10    1
     3    30    14    1
     4    37    17    1
     5     9    10    2
     6     9     8    1
     7    10     5    1
     8    29    14    1
     9    14    31    1
    10    14    12    1
    11    22     8    1
    12    17    38    1
    13    17    36    1
    14    17    15    1
    15     8     7    1
    16     3    11    2
    17     5     2    1
    18     5     6    1
    19    11     4   am
    20    11     2    1
    21    32    15    1
    22     4    12    1
    23     4    15    1
    24    12    25    1
    25    12    13    1
    26    15    16    1
    27     7     6    1
    28     7    21    1
    29     6     1    1
    30    27    13    1
    31    13    28    1
    32    13    26    1
    33    39    18    1
    34    16    35    1
    35    16    34    1
    36    16    33    1
    37    40    18    1
    38    18     1    1
    39    18    41    1
    40     1    20    1
    41     1    19    1
    42    46    20    1
    43    42    19    1
    44    20    45    1
    45    20    47    1
    46    19    43    1
    47    19    44    1
