@<TRIPOS>MOLECULE
5,6,7,8,9,10
 47 47 0 0 0
SMALL
GASTEIGER

@<TRIPOS>ATOM
      1 SI          3.1900    0.9132    9.7573 Si      1  UNL1        0.0000
      2 O           5.3095    2.1713    8.0872 O.3     1  UNL1        0.0000
      3 O           6.6310    0.7827    6.8971 O.2     1  UNL1        0.0000
      4 N           7.5286    2.1346    8.4970 N.am    1  UNL1        0.0000
      5 C           4.2271    1.8625    7.2793 C.3     1  UNL1        0.0000
      6 C           3.1122    1.2830    7.8999 C.3     1  UNL1        0.0000
      7 C           1.9763    1.0613    7.0986 C.3     1  UNL1        0.0000
      8 C           1.9804    1.3407    5.7292 C.3     1  UNL1        0.0000
      9 C           3.1278    1.8931    5.1360 C.2     1  UNL1        0.0000
     10 C           4.2701    2.1321    5.9004 C.2     1  UNL1        0.0000
     11 C           6.5303    1.6302    7.7527 C.2     1  UNL1        0.0000
     12 C           8.8589    1.5267    8.3974 C.3     1  UNL1        0.0000
     13 C           8.8147    0.0453    8.7705 C.3     1  UNL1        0.0000
     14 C           9.4612    1.7305    7.0082 C.3     1  UNL1        0.0000
     15 C           7.3210    3.2456    9.4235 C.3     1  UNL1        0.0000
     16 C           7.4370    2.7827   10.8755 C.3     1  UNL1        0.0000
     17 C           8.2660    4.4088    9.1224 C.3     1  UNL1        0.0000
     18 C           3.3698    2.5633   10.6913 C.3     1  UNL1        0.0000
     19 C           1.5449    0.0836   10.2529 C.3     1  UNL1        0.0000
     20 C           4.6196   -0.3084   10.0968 C.3     1  UNL1        0.0000
     21 H           1.1134    0.5757    7.5388 H       1  UNL1        0.0000
     22 H           1.1232    1.0898    5.1163 H       1  UNL1        0.0000
     23 H           3.1568    2.0553    4.0648 H       1  UNL1        0.0000
     24 H           5.1885    2.4812    5.4462 H       1  UNL1        0.0000
     25 H           9.4832    2.0456    9.1283 H       1  UNL1        0.0000
     26 H           8.3767   -0.0868    9.7575 H       1  UNL1        0.0000
     27 H           8.2240   -0.5065    8.0456 H       1  UNL1        0.0000
     28 H           9.8233   -0.3593    8.7804 H       1  UNL1        0.0000
     29 H           8.8643    1.2102    6.2655 H       1  UNL1        0.0000
     30 H           9.4946    2.7879    6.7579 H       1  UNL1        0.0000
     31 H          10.4732    1.3349    6.9858 H       1  UNL1        0.0000
     32 H           6.3024    3.6016    9.2549 H       1  UNL1        0.0000
     33 H           6.7412    1.9699   11.0685 H       1  UNL1        0.0000
     34 H           8.4449    2.4438   11.1037 H       1  UNL1        0.0000
     35 H           7.1949    3.6080   11.5395 H       1  UNL1        0.0000
     36 H           9.2985    4.1711    9.3651 H       1  UNL1        0.0000
     37 H           8.2059    4.6807    8.0716 H       1  UNL1        0.0000
     38 H           7.9674    5.2699    9.7139 H       1  UNL1        0.0000
     39 H           4.2687    3.0954   10.3997 H       1  UNL1        0.0000
     40 H           2.5267    3.2162   10.4790 H       1  UNL1        0.0000
     41 H           3.4085    2.4076   11.7652 H       1  UNL1        0.0000
     42 H           0.7003    0.7454   10.0881 H       1  UNL1        0.0000
     43 H           1.3624   -0.8388    9.7094 H       1  UNL1        0.0000
     44 H           1.5592   -0.1635   11.3090 H       1  UNL1        0.0000
     45 H           4.4685   -1.2505    9.5771 H       1  UNL1        0.0000
     46 H           5.5793    0.0849    9.7790 H       1  UNL1        0.0000
     47 H           4.6863   -0.5280   11.1580 H       1  UNL1        0.0000
@<TRIPOS>BOND
     1    23     9    1
     2    22     8    1
     3     9     8    1
     4     9    10    2
     5    24    10    1
     6     8     7    1
     7    10     5    1
     8    29    14    1
     9    30    14    1
    10     3    11    2
    11    31    14    1
    12    14    12    1
    13     7    21    1
    14     7     6    1
    15     5     6    1
    16     5     2    1
    17    11     2    1
    18    11     4   am
    19     6     1    1
    20    27    13    1
    21    37    17    1
    22    12     4    1
    23    12    13    1
    24    12    25    1
    25     4    15    1
    26    13    28    1
    27    13    26    1
    28    17    36    1
    29    17    15    1
    30    17    38    1
    31    32    15    1
    32    15    16    1
    33    45    20    1
    34    43    19    1
    35     1    20    1
    36     1    19    1
    37     1    18    1
    38    46    20    1
    39    42    19    1
    40    20    47    1
    41    19    44    1
    42    39    18    1
    43    40    18    1
    44    18    41    1
    45    16    33    1
    46    16    34    1
    47    16    35    1
