@<TRIPOS>MOLECULE
6,8,10,12,44,45
 46 48 0 0 0
SMALL
GASTEIGER

@<TRIPOS>ATOM
      1 SI          1.6288    3.0921    0.7134 Si      1  UNL1        0.0000
      2 N           2.9475    6.5819    0.1931 N.ar    1  UNL1        0.0000
      3 C           4.4748    5.2627    1.6812 C.ar    1  UNL1        0.0000
      4 H           4.9157    4.3339    2.0185 H       1  UNL1        0.0000
      5 C           4.7523    6.3764    2.4033 C.ar    1  UNL1        0.0000
      6 C           4.6200    8.8492    2.6265 C.3     1  UNL1        0.0000
      7 H           5.3723    8.7828    3.4044 H       1  UNL1        0.0000
      8 C           4.2325   10.1030    2.1577 C.3     1  UNL1        0.0000
      9 H           4.6524   11.0063    2.5826 H       1  UNL1        0.0000
     10 C           3.3054   10.1673    1.1102 C.3     1  UNL1        0.0000
     11 H           3.0071   11.1299    0.7099 H       1  UNL1        0.0000
     12 C           2.8586    9.0017    0.4775 C.3     1  UNL1        0.0000
     13 H           2.2270    9.1142   -0.3912 H       1  UNL1        0.0000
     14 C           1.9181    6.7319   -0.8186 C.3     1  UNL1        0.0000
     15 H           1.0335    7.2146   -0.3955 H       1  UNL1        0.0000
     16 H           1.6303    5.7495   -1.1729 H       1  UNL1        0.0000
     17 H           2.2783    7.3165   -1.6701 H       1  UNL1        0.0000
     18 C           3.0799    3.9682   -0.2058 C.3     1  UNL1        0.0000
     19 H           3.9156    3.2686   -0.1850 H       1  UNL1        0.0000
     20 H           2.8114    4.0795   -1.2555 H       1  UNL1        0.0000
     21 C           2.0987    2.8341    2.5418 C.3     1  UNL1        0.0000
     22 H           2.2345    3.7873    3.0439 H       1  UNL1        0.0000
     23 H           3.0226    2.2732    2.6457 H       1  UNL1        0.0000
     24 H           1.3250    2.2900    3.0744 H       1  UNL1        0.0000
     25 C           1.3538    1.4020   -0.1381 C.3     1  UNL1        0.0000
     26 H           0.5601    0.8477    0.3525 H       1  UNL1        0.0000
     27 H           2.2476    0.7866   -0.1081 H       1  UNL1        0.0000
     28 H           1.0721    1.5180   -1.1804 H       1  UNL1        0.0000
     29 C           0.0136    4.1030    0.6259 C.3     1  UNL1        0.0000
     30 H          -0.8014    3.5499    1.0833 H       1  UNL1        0.0000
     31 H          -0.2844    4.3255   -0.3948 H       1  UNL1        0.0000
     32 H           0.1027    5.0419    1.1629 H       1  UNL1        0.0000
     33 C           5.5930    6.2983    3.6163 C.ar    1  UNL1        0.0000
     34 C           6.8946    5.8139    3.5401 C.ar    1  UNL1        0.0000
     35 H           7.2990    5.5314    2.5783 H       1  UNL1        0.0000
     36 C           7.6687    5.7068    4.6814 C.ar    1  UNL1        0.0000
     37 H           8.6812    5.3367    4.6106 H       1  UNL1        0.0000
     38 C           7.1472    6.0703    5.9118 C.ar    1  UNL1        0.0000
     39 H           7.7520    5.9847    6.8023 H       1  UNL1        0.0000
     40 C           5.8461    6.5383    5.9974 C.ar    1  UNL1        0.0000
     41 H           5.4298    6.8146    6.9544 H       1  UNL1        0.0000
     42 C           5.0717    6.6542    4.8575 C.ar    1  UNL1        0.0000
     43 H           4.0515    7.0063    4.9247 H       1  UNL1        0.0000
     44 C           3.3233    7.7200    0.8667 C.ar    1  UNL1        0.0000
     45 C           4.2111    7.6466    1.9888 C.ar    1  UNL1        0.0000
     46 B           3.4945    5.3013    0.5126 B       1  UNL1        0.0000
@<TRIPOS>BOND
     1    17    14    1
     2    20    18    1
     3    28    25    1
     4    16    14    1
     5    14    15    1
     6    14     2    1
     7    31    29    1
     8    13    12    1
     9    18    19    1
    10    18    46    1
    11    18     1    1
    12    25    27    1
    13    25    26    1
    14    25     1    1
    15     2    46   ar
    16     2    44   ar
    17    12    44    1
    18    12    10    1
    19    46     3   ar
    20    29     1    1
    21    29    30    1
    22    29    32    1
    23    11    10    1
    24     1    21    1
    25    44    45   ar
    26    10     8    1
    27     3     4    1
    28     3     5   ar
    29    45     5   ar
    30    45     6    1
    31     8     9    1
    32     8     6    1
    33     5    33    1
    34    21    23    1
    35    21    22    1
    36    21    24    1
    37    35    34    1
    38     6     7    1
    39    34    33   ar
    40    34    36   ar
    41    33    42   ar
    42    37    36    1
    43    36    38   ar
    44    42    43    1
    45    42    40   ar
    46    38    40   ar
    47    38    39    1
    48    40    41    1
