@<TRIPOS>MOLECULE
1,2,3,4,5,6
 30 30 0 0 0
SMALL
GASTEIGER

@<TRIPOS>ATOM
      1 C           1.2300    7.8327    5.2462 C.2     1  UNL1       -0.0658
      2 C           0.2844    6.8121    5.1020 C.2     1  UNL1       -0.0658
      3 C           0.0215    6.2657    3.8044 C.3     1  UNL1        0.0049
      4 C           0.6325    6.8405    2.6760 C.3     1  UNL1       -0.0087
      5 C           1.7521    7.6808    2.8546 C.3     1  UNL1       -0.0087
      6 C           2.1040    8.1195    4.1611 C.3     1  UNL1        0.0049
      7 C           1.2850    8.6435    6.5133 C.3     1  UNL1       -0.0430
      8 C          -0.5715    6.3878    6.2650 C.3     1  UNL1       -0.0430
      9 C          -1.0755    5.2493    3.6297 C.3     1  UNL1       -0.0545
     10 C           0.1385    6.5294    1.2890 C.3     1  UNL1       -0.0577
     11 C           2.4762    8.2006    1.6426 C.3     1  UNL1       -0.0577
     12 C           3.2416    9.0864    4.3577 C.3     1  UNL1       -0.0545
     13 H           1.7387    9.6140    6.3330 H       1  UNL1        0.0275
     14 H          -0.6490    5.3040    6.3091 H       1  UNL1        0.0275
     15 H          -2.0485    5.7403    3.5508 H       1  UNL1        0.0239
     16 H           0.2846    7.3832    0.6313 H       1  UNL1        0.0236
     17 H           3.4802    8.5341    1.8856 H       1  UNL1        0.0236
     18 H           2.9591   10.0982    4.0583 H       1  UNL1        0.0239
     19 H          -1.1109    4.5668    4.4740 H       1  UNL1        0.0239
     20 H          -0.9099    4.6513    2.7379 H       1  UNL1        0.0239
     21 H          -0.9229    6.2942    1.2959 H       1  UNL1        0.0236
     22 H           0.6774    5.6796    0.8673 H       1  UNL1        0.0236
     23 H           1.9397    9.0475    1.2087 H       1  UNL1        0.0236
     24 H           2.5652    7.4245    0.8846 H       1  UNL1        0.0236
     25 H           4.1083    8.7900    3.7708 H       1  UNL1        0.0239
     26 H           3.5599    9.1041    5.3962 H       1  UNL1        0.0239
     27 H           1.8505    8.1341    7.2939 H       1  UNL1        0.0275
     28 H           0.2767    8.8184    6.8852 H       1  UNL1        0.0275
     29 H          -1.5799    6.7954    6.1653 H       1  UNL1        0.0275
     30 H          -0.1509    6.7133    7.2110 H       1  UNL1        0.0275
@<TRIPOS>BOND
     1    16    10    1
     2    22    10    1
     3    24    11    1
     4    23    11    1
     5    10    21    1
     6    10     4    1
     7    11    17    1
     8    11     5    1
     9     4     5    1
    10     4     3    1
    11    20     9    1
    12     5     6    1
    13    15     9    1
    14     9     3    1
    15     9    19    1
    16    25    12    1
    17     3     2    1
    18    18    12    1
    19     6    12    1
    20     6     1    1
    21    12    26    1
    22     2     1    2
    23     2     8    1
    24     1     7    1
    25    29     8    1
    26     8    14    1
    27     8    30    1
    28    13     7    1
    29     7    28    1
    30     7    27    1
