@<TRIPOS>MOLECULE
2,3,16,18,31
 39 42 0 0 0
SMALL
GASTEIGER

@<TRIPOS>ATOM
      1 SI          1.7595   13.0011    5.5728 Si      1  UNL1        0.0000
      2 C           0.6806   11.9328    4.4529 C.3     1  UNL1        0.0000
      3 C           0.9968   11.6279    3.0985 C.2     1  UNL1        0.0000
      4 H           1.6690   12.2102    2.4804 H       1  UNL1        0.0000
      5 C           0.1824   10.5927    2.6256 C.2     1  UNL1        0.0000
      6 H           0.1202   10.2489    1.6054 H       1  UNL1        0.0000
      7 C          -0.6771   10.2013    3.6824 C.ar    1  UNL1        0.0000
      8 C          -1.7488    9.2958    3.7486 C.ar    1  UNL1        0.0000
      9 H          -2.0072    8.6994    2.8845 H       1  UNL1        0.0000
     10 C          -2.4822    9.2074    4.9054 C.ar    1  UNL1        0.0000
     11 H          -3.3157    8.5233    4.9639 H       1  UNL1        0.0000
     12 C          -2.1828   10.0107    6.0182 C.ar    1  UNL1        0.0000
     13 H          -2.7956    9.9245    6.9036 H       1  UNL1        0.0000
     14 C          -1.1423   10.9078    5.9938 C.ar    1  UNL1        0.0000
     15 H          -0.9538   11.5479    6.8438 H       1  UNL1        0.0000
     16 C          -0.3610   11.0252    4.8289 C.ar    1  UNL1        0.0000
     17 C           3.0416   11.6672    5.9380 C.3     1  UNL1        0.0000
     18 C           2.9508   10.6924    6.9686 C.2     1  UNL1        0.0000
     19 H           2.3500   10.8053    7.8625 H       1  UNL1        0.0000
     20 C           3.8790    9.6661    6.7586 C.2     1  UNL1        0.0000
     21 H           4.1077    8.8656    7.4436 H       1  UNL1        0.0000
     22 C           4.5916    9.9647    5.5703 C.ar    1  UNL1        0.0000
     23 C           5.6928    9.3580    4.9425 C.ar    1  UNL1        0.0000
     24 H           6.1190    8.4532    5.3541 H       1  UNL1        0.0000
     25 C           6.2393    9.9462    3.8296 C.ar    1  UNL1        0.0000
     26 H           7.0930    9.4949    3.3462 H       1  UNL1        0.0000
     27 C           5.7209   11.1442    3.3117 C.ar    1  UNL1        0.0000
     28 H           6.1896   11.5830    2.4428 H       1  UNL1        0.0000
     29 C           4.6491   11.7722    3.8988 C.ar    1  UNL1        0.0000
     30 H           4.2969   12.7211    3.5184 H       1  UNL1        0.0000
     31 C           4.0595   11.2032    5.0435 C.ar    1  UNL1        0.0000
     32 C           0.9245   13.6106    7.1741 C.3     1  UNL1        0.0000
     33 H           0.7435   12.8130    7.8857 H       1  UNL1        0.0000
     34 H          -0.0253   14.0863    6.9553 H       1  UNL1        0.0000
     35 H           1.5556   14.3453    7.6627 H       1  UNL1        0.0000
     36 C           2.4290   14.5332    4.6554 C.3     1  UNL1        0.0000
     37 H           3.3813   14.8471    5.0694 H       1  UNL1        0.0000
     38 H           1.7358   15.3613    4.7576 H       1  UNL1        0.0000
     39 H           2.5676   14.3578    3.5944 H       1  UNL1        0.0000
@<TRIPOS>BOND
     1     6     5    1
     2    28    27    1
     3     4     3    1
     4     5     3    2
     5     5     7    1
     6     9     8    1
     7     3     2    1
     8    27    25   ar
     9    27    29   ar
    10    26    25    1
    11    30    29    1
    12    39    36    1
    13     7     8   ar
    14     7    16   ar
    15     8    10   ar
    16    25    23   ar
    17    29    31   ar
    18     2    16    1
    19     2     1    1
    20    36    38    1
    21    36    37    1
    22    36     1    1
    23    16    14   ar
    24    10    11    1
    25    10    12   ar
    26    23    24    1
    27    23    22   ar
    28    31    22   ar
    29    31    17    1
    30    22    20    1
    31     1    17    1
    32     1    32    1
    33    17    18    1
    34    14    12   ar
    35    14    15    1
    36    12    13    1
    37    20    18    2
    38    20    21    1
    39    34    32    1
    40    18    19    1
    41    32    35    1
    42    32    33    1
