@<TRIPOS>MOLECULE
6,7,8,9,10,11
 43 45 0 0 0
SMALL
GASTEIGER

@<TRIPOS>ATOM
      1 SI          2.9110    6.8331   -0.8922 Si      1  UNL1        0.0000
      2 SI          5.2030    4.3282   -0.9869 Si      1  UNL1        0.0000
      3 C           3.2108    4.7612    1.0506 C.ar    1  UNL1        0.0000
      4 C           4.2001    5.7007    1.3656 C.ar    1  UNL1        0.0000
      5 C           4.5144    6.0924    2.6055 C.ar    1  UNL1        0.0000
      6 C           3.7083    5.4830    3.6359 C.ar    1  UNL1        0.0000
      7 C           3.9021    5.8366    5.0002 C.3     1  UNL1        0.0000
      8 C           3.1689    5.2356    6.0153 C.2     1  UNL1        0.0000
      9 C           2.1758    4.2841    5.6989 C.2     1  UNL1        0.0000
     10 C           1.9312    3.9543    4.3719 C.3     1  UNL1        0.0000
     11 C           2.6977    4.5166    3.3133 C.ar    1  UNL1        0.0000
     12 C           2.4510    4.1223    1.9472 C.ar    1  UNL1        0.0000
     13 C           3.9303    5.4228   -0.0679 C.3     1  UNL1        0.0000
     14 C           1.4858    7.2653    0.2894 C.3     1  UNL1        0.0000
     15 C           2.2485    6.2116   -2.5666 C.3     1  UNL1        0.0000
     16 C           4.0726    8.3257   -1.1154 C.3     1  UNL1        0.0000
     17 C           6.2776    3.4746    0.3374 C.3     1  UNL1        0.0000
     18 C           4.2483    3.0182   -1.9876 C.3     1  UNL1        0.0000
     19 C           6.2931    5.4045   -2.1162 C.3     1  UNL1        0.0000
     20 H           5.2765    6.8111    2.8714 H       1  UNL1        0.0000
     21 H           4.7080    6.5200    5.2454 H       1  UNL1        0.0000
     22 H           3.3959    5.4501    7.0531 H       1  UNL1        0.0000
     23 H           1.6464    3.7743    6.4952 H       1  UNL1        0.0000
     24 H           1.2117    3.1791    4.1303 H       1  UNL1        0.0000
     25 H           1.6893    3.3877    1.7271 H       1  UNL1        0.0000
     26 H           0.8152    6.4235    0.4328 H       1  UNL1        0.0000
     27 H           1.8554    7.5488    1.2720 H       1  UNL1        0.0000
     28 H           0.8917    8.0930   -0.0850 H       1  UNL1        0.0000
     29 H           3.0524    5.9915   -3.2612 H       1  UNL1        0.0000
     30 H           1.6532    5.3118   -2.4502 H       1  UNL1        0.0000
     31 H           1.6162    6.9642   -3.0262 H       1  UNL1        0.0000
     32 H           4.4910    8.6381   -0.1636 H       1  UNL1        0.0000
     33 H           4.8979    8.1046   -1.7839 H       1  UNL1        0.0000
     34 H           3.5336    9.1726   -1.5281 H       1  UNL1        0.0000
     35 H           6.8102    4.2038    0.9406 H       1  UNL1        0.0000
     36 H           5.6672    2.8793    1.0103 H       1  UNL1        0.0000
     37 H           7.0151    2.8143   -0.1082 H       1  UNL1        0.0000
     38 H           3.5664    2.4598   -1.3535 H       1  UNL1        0.0000
     39 H           3.6628    3.4705   -2.7807 H       1  UNL1        0.0000
     40 H           4.9275    2.3061   -2.4465 H       1  UNL1        0.0000
     41 H           5.7093    5.8737   -2.9009 H       1  UNL1        0.0000
     42 H           6.7914    6.1906   -1.5582 H       1  UNL1        0.0000
     43 H           7.0613    4.8046   -2.5941 H       1  UNL1        0.0000
@<TRIPOS>BOND
     1    29    15    1
     2    31    15    1
     3    41    19    1
     4    39    18    1
     5    43    19    1
     6    15    30    1
     7    15     1    1
     8    40    18    1
     9    19    42    1
    10    19     2    1
    11    18    38    1
    12    18     2    1
    13    33    16    1
    14    34    16    1
    15    16     1    1
    16    16    32    1
    17     2    13    1
    18     2    17    1
    19     1    13    1
    20     1    14    1
    21    37    17    1
    22    28    14    1
    23    13     3    1
    24    13     4    1
    25    14    26    1
    26    14    27    1
    27    17    35    1
    28    17    36    1
    29     3     4   ar
    30     3    12   ar
    31     4     5   ar
    32    25    12    1
    33    12    11   ar
    34     5    20    1
    35     5     6   ar
    36    11     6   ar
    37    11    10    1
    38     6     7    1
    39    24    10    1
    40    10     9    1
    41     7    21    1
    42     7     8    1
    43     9     8    2
    44     9    23    1
    45     8    22    1
