@<TRIPOS>MOLECULE
1,25,33,41,47,56
 56 57 0 0 0
SMALL
GASTEIGER

@<TRIPOS>ATOM
      1 C           5.5587   17.5522    4.2903 C.3     1  UNL1        0.0000
      2 O           6.2800   18.6554    3.9591 O.3     1  UNL1        0.0000
      3 SI          6.5980   19.4267    2.5445 Si      1  UNL1        0.0000
      4 C           7.2501   18.2202    1.2144 C.3     1  UNL1        0.0000
      5 H           8.3316   18.1180    1.2314 H       1  UNL1        0.0000
      6 H           6.9690   18.5479    0.2197 H       1  UNL1        0.0000
      7 H           6.8226   17.2319    1.3587 H       1  UNL1        0.0000
      8 C           5.0626   20.3617    1.9120 C.3     1  UNL1        0.0000
      9 H           4.8119   21.2139    2.5377 H       1  UNL1        0.0000
     10 H           4.1959   19.7078    1.8823 H       1  UNL1        0.0000
     11 H           5.2170   20.7339    0.9050 H       1  UNL1        0.0000
     12 C           7.9796   20.6564    3.0853 C.3     1  UNL1        0.0000
     13 C           7.4529   21.6766    4.0961 C.3     1  UNL1        0.0000
     14 H           6.6522   22.2716    3.6650 H       1  UNL1        0.0000
     15 H           8.2500   22.3542    4.4024 H       1  UNL1        0.0000
     16 H           7.0716   21.1769    4.9821 H       1  UNL1        0.0000
     17 C           8.4757   21.4108    1.8525 C.3     1  UNL1        0.0000
     18 H           8.8812   20.7243    1.1142 H       1  UNL1        0.0000
     19 H           9.2574   22.1193    2.1257 H       1  UNL1        0.0000
     20 H           7.6624   21.9633    1.3897 H       1  UNL1        0.0000
     21 C           9.1616   19.9214    3.7212 C.3     1  UNL1        0.0000
     22 H           9.6096   19.2212    3.0195 H       1  UNL1        0.0000
     23 H           8.8390   19.3716    4.6022 H       1  UNL1        0.0000
     24 H           9.9318   20.6304    4.0254 H       1  UNL1        0.0000
     25 C           4.3160   17.7204    4.9554 C.3     1  UNL1        0.0000
     26 C           3.8862   19.1245    5.2894 C.3     1  UNL1        0.0000
     27 H           2.8224   19.1630    5.5209 H       1  UNL1        0.0000
     28 H           4.0631   19.7609    4.4218 H       1  UNL1        0.0000
     29 C           4.6994   19.6696    6.4677 C.3     1  UNL1        0.0000
     30 H           4.3830   20.6815    6.7104 H       1  UNL1        0.0000
     31 H           5.7548   19.6883    6.2092 H       1  UNL1        0.0000
     32 H           4.5785   19.0459    7.3514 H       1  UNL1        0.0000
     33 C           3.6114   16.5704    5.4058 C.3     1  UNL1        0.0000
     34 C           2.2447   16.6644    6.0390 C.3     1  UNL1        0.0000
     35 H           1.7593   15.6926    5.9261 H       1  UNL1        0.0000
     36 H           1.6370   17.3900    5.4939 H       1  UNL1        0.0000
     37 C           2.2827   17.0461    7.5216 C.3     1  UNL1        0.0000
     38 H           1.2976   16.9142    7.9646 H       1  UNL1        0.0000
     39 H           2.5741   18.0842    7.6518 H       1  UNL1        0.0000
     40 H           2.9908   16.4250    8.0683 H       1  UNL1        0.0000
     41 C           4.1396   15.3060    5.1270 C.3     1  UNL1        0.0000
     42 O           3.4265   14.1443    5.4281 O.3     1  UNL1        0.0000
     43 C           3.6002   13.6373    6.7386 C.3     1  UNL1        0.0000
     44 H           3.2284   12.6133    6.7202 H       1  UNL1        0.0000
     45 H           3.0250   14.2154    7.4694 H       1  UNL1        0.0000
     46 H           4.6529   13.6396    7.0384 H       1  UNL1        0.0000
     47 C           5.5084   15.1348    4.6970 C.ar    1  UNL1        0.0000
     48 C           6.1468   13.8860    4.6752 C.ar    1  UNL1        0.0000
     49 H           5.5911   13.0045    4.9592 H       1  UNL1        0.0000
     50 C           7.4653   13.7744    4.2929 C.ar    1  UNL1        0.0000
     51 H           7.9412   12.8059    4.2866 H       1  UNL1        0.0000
     52 C           8.1857   14.9075    3.9208 C.ar    1  UNL1        0.0000
     53 H           9.2228   14.8121    3.6368 H       1  UNL1        0.0000
     54 C           7.5864   16.1450    3.9234 C.ar    1  UNL1        0.0000
     55 H           8.1434   17.0290    3.6585 H       1  UNL1        0.0000
     56 C           6.2382   16.2872    4.2947 C.ar    1  UNL1        0.0000
@<TRIPOS>BOND
     1     6     4    1
     2    11     8    1
     3    18    17    1
     4     4     5    1
     5     4     7    1
     6     4     3    1
     7    20    17    1
     8    17    19    1
     9    17    12    1
    10    10     8    1
    11     8     9    1
    12     8     3    1
    13     3    12    1
    14     3     2    1
    15    22    21    1
    16    12    21    1
    17    12    13    1
    18    53    52    1
    19    55    54    1
    20    14    13    1
    21    21    24    1
    22    21    23    1
    23    52    54   ar
    24    52    50   ar
    25    54    56   ar
    26     2     1    1
    27    13    15    1
    28    13    16    1
    29    51    50    1
    30     1    56    1
    31     1    25    1
    32    50    48   ar
    33    56    47   ar
    34    28    26    1
    35    48    47   ar
    36    48    49    1
    37    47    41    1
    38    25    26    1
    39    25    33    1
    40    41    33    1
    41    41    42    1
    42    26    27    1
    43    26    29    1
    44    33    34    1
    45    42    43    1
    46    36    34    1
    47    35    34    1
    48    34    37    1
    49    31    29    1
    50    29    30    1
    51    29    32    1
    52    44    43    1
    53    43    46    1
    54    43    45    1
    55    37    39    1
    56    37    38    1
    57    37    40    1
