@<TRIPOS>MOLECULE
5,6,8,10,12,14
 56 57 0 0 0
SMALL
GASTEIGER

@<TRIPOS>ATOM
      1 C           5.3790    2.5149    4.3201 C.ar    1  UNL1        0.0000
      2 C           4.6096    1.4240    4.6815 C.ar    1  UNL1        0.0000
      3 C           3.9205    1.4327    5.9178 C.ar    1  UNL1        0.0000
      4 C           3.9681    2.5598    6.7169 C.ar    1  UNL1        0.0000
      5 C           4.6237    3.7404    6.2940 C.ar    1  UNL1        0.0000
      6 C           4.5422    4.9679    7.0185 C.3     1  UNL1        0.0000
      7 H           3.9763    4.9850    7.9419 H       1  UNL1        0.0000
      8 C           5.2813    6.0760    6.6314 C.2     1  UNL1        0.0000
      9 H           5.3225    6.9555    7.2634 H       1  UNL1        0.0000
     10 C           6.0330    6.0385    5.4306 C.2     1  UNL1        0.0000
     11 H           6.6443    6.8943    5.1607 H       1  UNL1        0.0000
     12 C           6.0573    4.8914    4.6540 C.3     1  UNL1        0.0000
     13 H           6.6589    4.8451    3.7583 H       1  UNL1        0.0000
     14 C           5.3711    3.7123    5.0766 C.ar    1  UNL1        0.0000
     15 O           6.1122    2.4925    3.1687 O.3     1  UNL1        0.0000
     16 SI          7.6878    2.2244    2.8201 Si      1  UNL1        0.0000
     17 C           8.8789    3.1880    3.9675 C.3     1  UNL1        0.0000
     18 H           8.5352    3.1476    4.9981 H       1  UNL1        0.0000
     19 H           8.9736    4.2359    3.6980 H       1  UNL1        0.0000
     20 H           9.8761    2.7607    3.9423 H       1  UNL1        0.0000
     21 C           8.1731    0.3871    3.0075 C.3     1  UNL1        0.0000
     22 H           7.9944    0.0352    4.0204 H       1  UNL1        0.0000
     23 H           9.2274    0.2394    2.7963 H       1  UNL1        0.0000
     24 H           7.6158   -0.2558    2.3329 H       1  UNL1        0.0000
     25 C           7.7900    2.8135    0.9936 C.3     1  UNL1        0.0000
     26 C           7.2452    4.2365    0.8430 C.3     1  UNL1        0.0000
     27 H           6.2059    4.2812    1.1599 H       1  UNL1        0.0000
     28 H           7.2961    4.5502   -0.1998 H       1  UNL1        0.0000
     29 H           7.8253    4.9424    1.4354 H       1  UNL1        0.0000
     30 C           9.2462    2.7907    0.5277 C.3     1  UNL1        0.0000
     31 H           9.6584    1.7872    0.6017 H       1  UNL1        0.0000
     32 H           9.8595    3.4552    1.1318 H       1  UNL1        0.0000
     33 H           9.3189    3.1111   -0.5112 H       1  UNL1        0.0000
     34 C           6.9727    1.8907    0.0867 C.3     1  UNL1        0.0000
     35 H           5.9335    1.8663    0.4029 H       1  UNL1        0.0000
     36 H           7.3654    0.8770    0.1100 H       1  UNL1        0.0000
     37 H           7.0078    2.2436   -0.9438 H       1  UNL1        0.0000
     38 C           4.5116    0.2851    3.7039 C.3     1  UNL1        0.0000
     39 H           5.5113    0.0309    3.3500 H       1  UNL1        0.0000
     40 H           4.0807   -0.5987    4.1695 H       1  UNL1        0.0000
     41 C           3.6572    0.6951    2.5014 C.3     1  UNL1        0.0000
     42 H           3.5879   -0.1250    1.7897 H       1  UNL1        0.0000
     43 H           4.0968    1.5550    2.0050 H       1  UNL1        0.0000
     44 H           2.6545    0.9721    2.8169 H       1  UNL1        0.0000
     45 C           3.1013    0.2616    6.3908 C.3     1  UNL1        0.0000
     46 H           3.0086    0.3160    7.4758 H       1  UNL1        0.0000
     47 H           3.5911   -0.6818    6.1429 H       1  UNL1        0.0000
     48 C           1.6930    0.2969    5.7955 C.3     1  UNL1        0.0000
     49 H           1.0925   -0.5120    6.2063 H       1  UNL1        0.0000
     50 H           1.7231    0.1921    4.7152 H       1  UNL1        0.0000
     51 H           1.2170    1.2440    6.0366 H       1  UNL1        0.0000
     52 O           3.3346    2.5714    7.9564 O.3     1  UNL1        0.0000
     53 C           4.2103    2.3402    9.0382 C.3     1  UNL1        0.0000
     54 H           4.6623    1.3426    8.9815 H       1  UNL1        0.0000
     55 H           3.6067    2.4132    9.9415 H       1  UNL1        0.0000
     56 H           5.0161    3.0825    9.0777 H       1  UNL1        0.0000
@<TRIPOS>BOND
     1    37    34    1
     2    33    30    1
     3    28    26    1
     4    34    36    1
     5    34    35    1
     6    34    25    1
     7    30    31    1
     8    30    25    1
     9    30    32    1
    10    26    25    1
    11    26    27    1
    12    26    29    1
    13    25    16    1
    14    42    41    1
    15    43    41    1
    16    24    21    1
    17    41    44    1
    18    41    38    1
    19    23    21    1
    20    16    21    1
    21    16    15    1
    22    16    17    1
    23    21    22    1
    24    15     1    1
    25    39    38    1
    26    19    17    1
    27    38    40    1
    28    38     2    1
    29    13    12    1
    30    20    17    1
    31    17    18    1
    32     1     2   ar
    33     1    14   ar
    34    12    14    1
    35    12    10    1
    36     2     3   ar
    37    50    48    1
    38    14     5   ar
    39    11    10    1
    40    10     8    2
    41    48    51    1
    42    48    49    1
    43    48    45    1
    44     3    45    1
    45     3     4   ar
    46    47    45    1
    47     5     4   ar
    48     5     6    1
    49    45    46    1
    50     8     6    1
    51     8     9    1
    52     4    52    1
    53     6     7    1
    54    52    53    1
    55    54    53    1
    56    53    56    1
    57    53    55    1
