@<TRIPOS>MOLECULE
47,48,50,52,54,56
 56 57 0 0 0
SMALL
GASTEIGER

@<TRIPOS>ATOM
      1 C           6.3601    5.5965    4.0966 C.ar    1  UNL1        0.0000
      2 O           7.3652    5.9472    4.9475 O.3     1  UNL1        0.0000
      3 SI          7.8059    5.4728    6.4516 Si      1  UNL1        0.0000
      4 C           6.3076    5.1966    7.6081 C.3     1  UNL1        0.0000
      5 H           5.4886    4.7323    7.0645 H       1  UNL1        0.0000
      6 H           5.9286    6.1179    8.0403 H       1  UNL1        0.0000
      7 H           6.5639    4.5378    8.4315 H       1  UNL1        0.0000
      8 C           8.7587    3.8175    6.4304 C.3     1  UNL1        0.0000
      9 H           9.6438    3.8622    5.8028 H       1  UNL1        0.0000
     10 H           8.1346    3.0060    6.0649 H       1  UNL1        0.0000
     11 H           9.0851    3.5460    7.4293 H       1  UNL1        0.0000
     12 C           8.9331    6.9220    7.0212 C.3     1  UNL1        0.0000
     13 C           9.3880    6.6792    8.4609 C.3     1  UNL1        0.0000
     14 H           8.5354    6.6185    9.1332 H       1  UNL1        0.0000
     15 H          10.0316    7.4907    8.7990 H       1  UNL1        0.0000
     16 H           9.9476    5.7503    8.5368 H       1  UNL1        0.0000
     17 C           8.1925    8.2610    6.9593 C.3     1  UNL1        0.0000
     18 H           7.3246    8.2597    7.6170 H       1  UNL1        0.0000
     19 H           7.8649    8.4708    5.9435 H       1  UNL1        0.0000
     20 H           8.8526    9.0684    7.2770 H       1  UNL1        0.0000
     21 C          10.1708    7.0199    6.1263 C.3     1  UNL1        0.0000
     22 H          10.7580    6.1061    6.1741 H       1  UNL1        0.0000
     23 H          10.8045    7.8472    6.4447 H       1  UNL1        0.0000
     24 H           9.8809    7.1911    5.0931 H       1  UNL1        0.0000
     25 C           6.6040    4.7396    3.0408 C.ar    1  UNL1        0.0000
     26 C           8.0216    4.2857    2.8242 C.3     1  UNL1        0.0000
     27 H           8.0633    3.4404    2.1409 H       1  UNL1        0.0000
     28 H           8.4397    3.9686    3.7798 H       1  UNL1        0.0000
     29 C           8.8733    5.4352    2.2788 C.3     1  UNL1        0.0000
     30 H           9.8938    5.1005    2.1053 H       1  UNL1        0.0000
     31 H           8.8906    6.2549    2.9907 H       1  UNL1        0.0000
     32 H           8.4630    5.8118    1.3452 H       1  UNL1        0.0000
     33 C           5.5399    4.3470    2.1911 C.ar    1  UNL1        0.0000
     34 C           5.7419    3.3658    1.0654 C.3     1  UNL1        0.0000
     35 H           4.7608    2.9875    0.7740 H       1  UNL1        0.0000
     36 H           6.3283    2.5127    1.4132 H       1  UNL1        0.0000
     37 C           6.4221    3.9902   -0.1557 C.3     1  UNL1        0.0000
     38 H           6.3761    3.3029   -0.9981 H       1  UNL1        0.0000
     39 H           7.4651    4.2140    0.0452 H       1  UNL1        0.0000
     40 H           5.9292    4.9181   -0.4371 H       1  UNL1        0.0000
     41 C           4.2690    4.8422    2.4118 C.ar    1  UNL1        0.0000
     42 O           3.1855    4.3970    1.6637 O.3     1  UNL1        0.0000
     43 C           2.8973    5.1722    0.5135 C.3     1  UNL1        0.0000
     44 H           1.9561    4.7880    0.1226 H       1  UNL1        0.0000
     45 H           3.6760    5.0634   -0.2462 H       1  UNL1        0.0000
     46 H           2.7930    6.2317    0.7610 H       1  UNL1        0.0000
     47 C           4.0099    5.7839    3.4417 C.ar    1  UNL1        0.0000
     48 C           2.7042    6.3110    3.6824 C.2     1  UNL1        0.0000
     49 H           1.8768    5.9394    3.0918 H       1  UNL1        0.0000
     50 C           2.4763    7.1861    4.7288 C.2     1  UNL1        0.0000
     51 H           1.4647    7.5001    4.9624 H       1  UNL1        0.0000
     52 C           3.5471    7.5982    5.5654 C.3     1  UNL1        0.0000
     53 H           3.3434    8.2272    6.4245 H       1  UNL1        0.0000
     54 C           4.8266    7.1216    5.3378 C.3     1  UNL1        0.0000
     55 H           5.6365    7.4019    5.9944 H       1  UNL1        0.0000
     56 C           5.0816    6.1688    4.3070 C.ar    1  UNL1        0.0000
@<TRIPOS>BOND
     1    38    37    1
     2    40    37    1
     3    45    43    1
     4    37    39    1
     5    37    34    1
     6    44    43    1
     7    43    46    1
     8    43    42    1
     9    35    34    1
    10    34    36    1
    11    34    33    1
    12    32    29    1
    13    42    41    1
    14    30    29    1
    15    27    26    1
    16    33    41   ar
    17    33    25   ar
    18    29    26    1
    19    29    31    1
    20    41    47   ar
    21    26    25    1
    22    26    28    1
    23    25     1   ar
    24    49    48    1
    25    47    48    1
    26    47    56   ar
    27    48    50    2
    28     1    56   ar
    29     1     2    1
    30    56    54    1
    31    50    51    1
    32    50    52    1
    33     2     3    1
    34    24    21    1
    35    54    52    1
    36    54    55    1
    37    52    53    1
    38     9     8    1
    39    19    17    1
    40    10     8    1
    41    21    22    1
    42    21    23    1
    43    21    12    1
    44     8     3    1
    45     8    11    1
    46     3    12    1
    47     3     4    1
    48    17    12    1
    49    17    20    1
    50    17    18    1
    51    12    13    1
    52     5     4    1
    53     4     6    1
    54     4     7    1
    55    13    16    1
    56    13    15    1
    57    13    14    1
