@<TRIPOS>MOLECULE
4,5,6,7,8,9
 35 35 0 0 0
SMALL
GASTEIGER

@<TRIPOS>ATOM
      1 SI         -5.4573    6.9852    7.5102 Si      1  UNL1        0.0000
      2 O          -4.6234    0.3725    9.3814 O.3     1  UNL1        0.0000
      3 O          -6.6532    0.3303    8.2206 O.3     1  UNL1        0.0000
      4 C          -5.7399    4.1607    7.0690 C.3     1  UNL1        0.0000
      5 C          -5.8259    2.8057    7.4211 C.3     1  UNL1        0.0000
      6 C          -5.7670    2.4396    8.7703 C.3     1  UNL1        0.0000
      7 C          -5.5064    3.4172    9.7515 C.2     1  UNL1        0.0000
      8 C          -5.4134    4.7566    9.3773 C.2     1  UNL1        0.0000
      9 C          -5.5245    5.1609    8.0299 C.3     1  UNL1        0.0000
     10 C          -7.0394    7.3309    6.5084 C.3     1  UNL1        0.0000
     11 C          -5.3993    8.0824    9.0654 C.3     1  UNL1        0.0000
     12 C          -3.8850    7.2312    6.4502 C.3     1  UNL1        0.0000
     13 C          -5.8789    0.9876    9.1807 C.3     1  UNL1        0.0000
     14 C          -3.7843    0.3488    8.2447 C.3     1  UNL1        0.0000
     15 C          -7.1783   -0.9076    8.6532 C.3     1  UNL1        0.0000
     16 H          -5.7561    4.4298    6.0184 H       1  UNL1        0.0000
     17 H          -5.9379    2.0409    6.6640 H       1  UNL1        0.0000
     18 H          -5.3468    3.1127   10.7795 H       1  UNL1        0.0000
     19 H          -5.1795    5.4985   10.1319 H       1  UNL1        0.0000
     20 H          -7.9237    7.0393    7.0700 H       1  UNL1        0.0000
     21 H          -7.0542    6.7802    5.5727 H       1  UNL1        0.0000
     22 H          -7.1298    8.3848    6.2653 H       1  UNL1        0.0000
     23 H          -5.4117    9.1314    8.7879 H       1  UNL1        0.0000
     24 H          -4.5027    7.9169    9.6558 H       1  UNL1        0.0000
     25 H          -6.2610    7.9044    9.7020 H       1  UNL1        0.0000
     26 H          -3.8211    8.2565    6.1007 H       1  UNL1        0.0000
     27 H          -3.8843    6.5884    5.5748 H       1  UNL1        0.0000
     28 H          -2.9796    7.0209    7.0125 H       1  UNL1        0.0000
     29 H          -6.3555    0.9173   10.1746 H       1  UNL1        0.0000
     30 H          -2.9445   -0.2908    8.5073 H       1  UNL1        0.0000
     31 H          -3.4167    1.3518    7.9992 H       1  UNL1        0.0000
     32 H          -4.3074   -0.0668    7.3789 H       1  UNL1        0.0000
     33 H          -7.7057   -1.3265    7.7993 H       1  UNL1        0.0000
     34 H          -7.8776   -0.7572    9.4818 H       1  UNL1        0.0000
     35 H          -6.3803   -1.5858    8.9698 H       1  UNL1        0.0000
@<TRIPOS>BOND
     1    21    10    1
     2    27    12    1
     3    16     4    1
     4    26    12    1
     5    22    10    1
     6    12    28    1
     7    12     1    1
     8    10    20    1
     9    10     1    1
    10    17     5    1
    11     4     5    1
    12     4     9    1
    13    32    14    1
    14     5     6    1
    15     1     9    1
    16     1    11    1
    17    33    15    1
    18    31    14    1
    19     9     8    1
    20     3    15    1
    21     3    13    1
    22    14    30    1
    23    14     2    1
    24    15    35    1
    25    15    34    1
    26     6    13    1
    27     6     7    1
    28    23    11    1
    29    11    24    1
    30    11    25    1
    31    13     2    1
    32    13    29    1
    33     8     7    2
    34     8    19    1
    35     7    18    1
