@<TRIPOS>MOLECULE
4,5,6,7,8,9
 41 41 0 0 0
SMALL
GASTEIGER

@<TRIPOS>ATOM
      1 SI          0.4059    5.7410    8.5596 Si      1  UNL1        0.0000
      2 O          -3.9097    1.3504    5.3380 O.3     1  UNL1        0.0000
      3 O          -5.1448    2.1126    7.1751 O.3     1  UNL1        0.0000
      4 C          -2.8657    2.6370    7.1369 C.3     1  UNL1        0.0000
      5 C          -3.1839    4.0101    7.2016 C.3     1  UNL1        0.0000
      6 C          -2.2191    4.9231    7.6172 C.3     1  UNL1        0.0000
      7 C          -0.9045    4.5149    7.9390 C.3     1  UNL1        0.0000
      8 C          -0.6028    3.1520    7.8251 C.3     1  UNL1        0.0000
      9 C          -1.5616    2.2146    7.4045 C.3     1  UNL1        0.0000
     10 C          -3.9182    1.6325    6.7187 C.3     1  UNL1        0.0000
     11 C          -4.1734    2.4566    4.4874 C.3     1  UNL1        0.0000
     12 C          -4.3797    1.9297    3.0774 C.3     1  UNL1        0.0000
     13 C          -6.1822    1.1458    7.2334 C.3     1  UNL1        0.0000
     14 C          -7.3842    1.7861    7.9044 C.3     1  UNL1        0.0000
     15 C           1.2868    4.9119   10.0306 C.3     1  UNL1        0.0000
     16 C           1.6125    6.0842    7.1161 C.3     1  UNL1        0.0000
     17 C          -0.4551    7.3439    9.1201 C.3     1  UNL1        0.0000
     18 H          -4.1754    4.3365    6.9169 H       1  UNL1        0.0000
     19 H          -2.4597    5.9799    7.6257 H       1  UNL1        0.0000
     20 H           0.4133    2.8164    7.9994 H       1  UNL1        0.0000
     21 H          -1.2886    1.1758    7.2558 H       1  UNL1        0.0000
     22 H          -3.6949    0.6496    7.1736 H       1  UNL1        0.0000
     23 H          -5.0706    2.9842    4.8361 H       1  UNL1        0.0000
     24 H          -3.3246    3.1568    4.5114 H       1  UNL1        0.0000
     25 H          -4.5726    2.7562    2.3990 H       1  UNL1        0.0000
     26 H          -5.2220    1.2439    3.0554 H       1  UNL1        0.0000
     27 H          -3.4923    1.3956    2.7495 H       1  UNL1        0.0000
     28 H          -6.4290    0.8028    6.2192 H       1  UNL1        0.0000
     29 H          -5.8337    0.2811    7.8157 H       1  UNL1        0.0000
     30 H          -8.1922    1.0641    7.9793 H       1  UNL1        0.0000
     31 H          -7.7231    2.6438    7.3295 H       1  UNL1        0.0000
     32 H          -7.1057    2.1207    8.8996 H       1  UNL1        0.0000
     33 H           1.9330    4.0992    9.7129 H       1  UNL1        0.0000
     34 H           0.5639    4.5035   10.7330 H       1  UNL1        0.0000
     35 H           1.9062    5.6235   10.5669 H       1  UNL1        0.0000
     36 H           2.0783    5.1720    6.7546 H       1  UNL1        0.0000
     37 H           2.4062    6.7513    7.4363 H       1  UNL1        0.0000
     38 H           1.1119    6.5529    6.2736 H       1  UNL1        0.0000
     39 H          -0.9113    7.8796    8.2928 H       1  UNL1        0.0000
     40 H           0.2601    8.0169    9.5818 H       1  UNL1        0.0000
     41 H          -1.2281    7.1357    9.8541 H       1  UNL1        0.0000
@<TRIPOS>BOND
     1    25    12    1
     2    27    12    1
     3    26    12    1
     4    12    11    1
     5    11    24    1
     6    11    23    1
     7    11     2    1
     8     2    10    1
     9    28    13    1
    10    38    16    1
    11    10     4    1
    12    10    22    1
    13    10     3    1
    14    36    16    1
    15    18     5    1
    16    16    37    1
    17    16     1    1
    18     4     5    1
    19     4     9    1
    20     3    13    1
    21     5     6    1
    22    13    29    1
    23    13    14    1
    24    21     9    1
    25    31    14    1
    26     9     8    1
    27     6    19    1
    28     6     7    1
    29     8     7    1
    30     8    20    1
    31    14    30    1
    32    14    32    1
    33     7     1    1
    34    39    17    1
    35     1    17    1
    36     1    15    1
    37    17    40    1
    38    17    41    1
    39    33    15    1
    40    15    35    1
    41    15    34    1
