@<TRIPOS>MOLECULE
14,15,21,27,42,43
 67 69 0 0 0
SMALL
GASTEIGER

@<TRIPOS>ATOM
      1 SI          4.3548    8.3204   13.4720 Si      1  UNL1        0.0000
      2 C           3.7656    8.8832   15.1991 C.3     1  UNL1        0.0000
      3 H           4.4000    9.6453   15.6435 H       1  UNL1        0.0000
      4 H           3.7535    8.0383   15.8793 H       1  UNL1        0.0000
      5 H           2.7553    9.2782   15.1602 H       1  UNL1        0.0000
      6 C           3.0966    7.1306   12.6905 C.3     1  UNL1        0.0000
      7 H           2.1220    7.6042   12.6007 H       1  UNL1        0.0000
      8 H           2.9791    6.2291   13.2837 H       1  UNL1        0.0000
      9 H           3.4073    6.8366   11.6930 H       1  UNL1        0.0000
     10 C           6.0866    7.5256   13.6590 C.3     1  UNL1        0.0000
     11 H           6.8769    8.2563   13.8091 H       1  UNL1        0.0000
     12 H           6.3403    6.9346   12.7862 H       1  UNL1        0.0000
     13 H           6.0941    6.8595   14.5159 H       1  UNL1        0.0000
     14 C           4.4501    9.8764   12.3945 C.2     1  UNL1        0.0000
     15 C           4.9180    9.7623   11.0729 C.2     1  UNL1        0.0000
     16 O           5.3494    8.5090   10.6790 O.2     1  UNL1        0.0000
     17 C           6.6999    8.4227   10.2566 C.3     1  UNL1        0.0000
     18 H           6.8487    7.3899    9.9475 H       1  UNL1        0.0000
     19 H           7.3788    8.6573   11.0837 H       1  UNL1        0.0000
     20 H           6.9149    9.0897    9.4189 H       1  UNL1        0.0000
     21 C           4.9412   10.8733   10.2020 C.3     1  UNL1        0.0000
     22 O           5.4079   10.7724    8.9046 O.3     1  UNL1        0.0000
     23 C           4.6303    9.9627    8.0337 C.3     1  UNL1        0.0000
     24 H           5.1329   10.0043    7.0690 H       1  UNL1        0.0000
     25 H           3.6136   10.3617    7.9459 H       1  UNL1        0.0000
     26 H           4.5743    8.9272    8.3779 H       1  UNL1        0.0000
     27 C           4.5401   12.1480   10.6811 C.2     1  UNL1        0.0000
     28 C           4.7062   13.3343    9.7605 C.3     1  UNL1        0.0000
     29 H           4.3172   13.0315    8.7816 H       1  UNL1        0.0000
     30 C           6.2040   13.6247    9.5783 C.3     1  UNL1        0.0000
     31 H           6.3377   14.4613    8.8968 H       1  UNL1        0.0000
     32 H           6.7093   12.7576    9.1608 H       1  UNL1        0.0000
     33 H           6.6717   13.8767   10.5291 H       1  UNL1        0.0000
     34 C           3.9644   14.6048   10.2228 C.3     1  UNL1        0.0000
     35 H           4.6960   15.3618   10.5105 H       1  UNL1        0.0000
     36 H           3.4023   15.0130    9.3820 H       1  UNL1        0.0000
     37 C           3.0027   14.3763   11.3849 C.3     1  UNL1        0.0000
     38 H           2.1530   13.7758   11.0472 H       1  UNL1        0.0000
     39 H           2.6158   15.3355   11.7274 H       1  UNL1        0.0000
     40 C           3.6729   13.6210   12.5364 C.3     1  UNL1        0.0000
     41 H           2.9394   13.4734   13.3354 H       1  UNL1        0.0000
     42 C           4.0834   12.2743   12.0030 C.2     1  UNL1        0.0000
     43 C           3.9664   11.1258   12.8076 C.3     1  UNL1        0.0000
     44 H           3.6058   11.2406   13.8236 H       1  UNL1        0.0000
     45 C           4.8756   14.3789   13.1489 C.3     1  UNL1        0.0000
     46 H           5.5572   14.6816   12.3493 H       1  UNL1        0.0000
     47 C           4.4310   15.6359   13.8925 C.3     1  UNL1        0.0000
     48 H           3.9654   16.3351   13.2045 H       1  UNL1        0.0000
     49 H           5.2920   16.1300   14.3367 H       1  UNL1        0.0000
     50 H           3.7175   15.3918   14.6745 H       1  UNL1        0.0000
     51 C           5.7048   13.4544   14.0642 C.3     1  UNL1        0.0000
     52 H           5.8994   12.5211   13.5153 H       1  UNL1        0.0000
     53 C           5.0221   13.0510   15.3584 C.2     1  UNL1        0.0000
     54 O           3.8549   13.1677   15.5884 O.2     1  UNL1        0.0000
     55 O           5.8262   12.5099   16.2918 O.3     1  UNL1        0.0000
     56 C           7.2151   12.3464   16.0729 C.3     1  UNL1        0.0000
     57 C           7.4976   11.0201   15.3579 C.3     1  UNL1        0.0000
     58 H           7.1506   10.2014   15.9818 H       1  UNL1        0.0000
     59 H           8.5681   10.9269   15.1993 H       1  UNL1        0.0000
     60 H           6.9922   10.9580   14.3972 H       1  UNL1        0.0000
     61 C           7.8739   12.3735   17.4511 C.3     1  UNL1        0.0000
     62 H           7.4646   11.5770   18.0636 H       1  UNL1        0.0000
     63 H           7.6707   13.3288   17.9264 H       1  UNL1        0.0000
     64 H           8.9464   12.2504   17.3433 H       1  UNL1        0.0000
     65 O           7.7609   13.4376   15.3510 O.3     1  UNL1        0.0000
     66 C           7.0763   14.0383   14.3625 C.2     1  UNL1        0.0000
     67 O           7.5619   14.9586   13.7741 O.2     1  UNL1        0.0000
@<TRIPOS>BOND
     1    24    23    1
     2    25    23    1
     3    23    26    1
     4    23    22    1
     5    29    28    1
     6    31    30    1
     7    22    21    1
     8    32    30    1
     9    36    34    1
    10    20    17    1
    11    30    28    1
    12    30    33    1
    13    28    34    1
    14    28    27    1
    15    18    17    1
    16    21    27    1
    17    21    15    1
    18    34    35    1
    19    34    37    1
    20    17    16    1
    21    17    19    1
    22    16    15    1
    23    27    42    2
    24    38    37    1
    25    15    14    2
    26    37    39    1
    27    37    40    1
    28     9     6    1
    29    42    40    1
    30    42    43    1
    31    46    45    1
    32    14    43    1
    33    14     1    1
    34    40    45    1
    35    40    41    1
    36     7     6    1
    37     6     8    1
    38     6     1    1
    39    12    10    1
    40    43    44    1
    41    45    47    1
    42    45    51    1
    43    48    47    1
    44     1    10    1
    45     1     2    1
    46    52    51    1
    47    10    11    1
    48    10    13    1
    49    67    66    2
    50    47    49    1
    51    47    50    1
    52    51    66    1
    53    51    53    1
    54    66    65    1
    55    60    57    1
    56     5     2    1
    57     2     3    1
    58     2     4    1
    59    59    57    1
    60    65    56    1
    61    57    58    1
    62    57    56    1
    63    53    54    2
    64    53    55    1
    65    56    55    1
    66    56    61    1
    67    64    61    1
    68    61    63    1
    69    61    62    1
