@<TRIPOS>MOLECULE
2,4,5,6,7,8
 52 59 0 0 0
SMALL
GASTEIGER

@<TRIPOS>ATOM
      1 SI          3.6751    7.5340    2.2262 Si      1  UNL1        0.0000
      2 C           4.7865    5.5910    4.2489 C.3     1  UNL1        0.0000
      3 C           3.4800    6.0059    3.3637 C.3     1  UNL1        0.0000
      4 C           5.4210    8.1720    2.5086 C.3     1  UNL1        0.0000
      5 C           6.6046    7.7258    1.8231 C.2     1  UNL1        0.0000
      6 C           7.7241    8.3518    2.4107 C.2     1  UNL1        0.0000
      7 C           7.2563    9.2042    3.4513 C.2     1  UNL1        0.0000
      8 C           5.8541    9.0944    3.5184 C.2     1  UNL1        0.0000
      9 C           6.6073    6.9305    0.5435 C.3     1  UNL1        0.0000
     10 C           9.1676    8.2744    1.9847 C.3     1  UNL1        0.0000
     11 C           8.0888   10.1956    4.2161 C.3     1  UNL1        0.0000
     12 C           5.0060    9.9227    4.4450 C.3     1  UNL1        0.0000
     13 C           3.2956    7.0170    0.4191 C.3     1  UNL1        0.0000
     14 C           2.2956    8.8122    2.6149 C.3     1  UNL1        0.0000
     15 B           3.4302    6.2800    5.0423 B       1  UNL1        0.0000
     16 B           4.2684    4.9057    5.7492 B       1  UNL1        0.0000
     17 B           4.8070    3.8637    4.4485 B       1  UNL1        0.0000
     18 B           4.3292    4.5932    2.9340 B       1  UNL1        0.0000
     19 B           2.0079    5.6804    4.1889 B       1  UNL1        0.0000
     20 B           2.4890    4.9602    5.7399 B       1  UNL1        0.0000
     21 B           3.3461    3.4369    5.3620 B       1  UNL1        0.0000
     22 B           3.3896    3.2393    3.5835 B       1  UNL1        0.0000
     23 B           2.5619    4.6389    2.8833 B       1  UNL1        0.0000
     24 B           1.9435    3.9233    4.3847 B       1  UNL1        0.0000
     25 H           3.5451    7.4012    5.4119 H       1  UNL1        0.0000
     26 H           4.9718    5.0755    6.6860 H       1  UNL1        0.0000
     27 H           5.8557    3.3303    4.5147 H       1  UNL1        0.0000
     28 H           5.0153    4.6244    1.9709 H       1  UNL1        0.0000
     29 H           1.1025    6.4088    4.0037 H       1  UNL1        0.0000
     30 H           1.8559    5.1104    6.7217 H       1  UNL1        0.0000
     31 H           6.2307    5.9150    0.6779 H       1  UNL1        0.0000
     32 H           5.9807    7.4238   -0.1996 H       1  UNL1        0.0000
     33 H           7.6113    6.8652    0.1272 H       1  UNL1        0.0000
     34 H           3.3213    2.5117    6.0904 H       1  UNL1        0.0000
     35 H           9.2794    7.7339    1.0467 H       1  UNL1        0.0000
     36 H           9.5713    9.2777    1.8383 H       1  UNL1        0.0000
     37 H           9.7799    7.7704    2.7394 H       1  UNL1        0.0000
     38 H           3.3890    2.1854    3.0582 H       1  UNL1        0.0000
     39 H           8.0613   11.1709    3.7215 H       1  UNL1        0.0000
     40 H           7.7064   10.3270    5.2276 H       1  UNL1        0.0000
     41 H           9.1297    9.8806    4.2743 H       1  UNL1        0.0000
     42 H           2.0186    4.6808    1.8407 H       1  UNL1        0.0000
     43 H           5.0521   10.9759    4.1562 H       1  UNL1        0.0000
     44 H           3.9654    9.6162    4.4215 H       1  UNL1        0.0000
     45 H           5.3707    9.8446    5.4722 H       1  UNL1        0.0000
     46 H           0.9178    3.3452    4.4145 H       1  UNL1        0.0000
     47 H           3.5466    7.8146   -0.2727 H       1  UNL1        0.0000
     48 H           3.8231    6.1235    0.1069 H       1  UNL1        0.0000
     49 H           2.2344    6.8187    0.3075 H       1  UNL1        0.0000
     50 H           2.0427    8.8650    3.6684 H       1  UNL1        0.0000
     51 H           2.5805    9.8068    2.2875 H       1  UNL1        0.0000
     52 H           1.3864    8.5468    2.0851 H       1  UNL1        0.0000
@<TRIPOS>BOND
     1    47    13    1
     2    32     9    1
     3    48    13    1
     4    33     9    1
     5    49    13    1
     6    13     1    1
     7     9    31    1
     8     9     5    1
     9    35    10    1
    10     5     6    2
    11     5     4    1
    12    36    10    1
    13    42    23    1
    14    28    18    1
    15    10     6    1
    16    10    37    1
    17    52    14    1
    18     1     4    1
    19     1    14    1
    20    51    14    1
    21     6     7    1
    22     4     8    1
    23    14    50    1
    24    23     3    1
    25    23    22    1
    26    23    19    1
    27    18     3    1
    28    18     2    1
    29    18    17    1
    30    38    22    1
    31     3     2    1
    32     3    15    1
    33     7     8    2
    34     7    11    1
    35     8    12    1
    36    22    24    1
    37    22    17    1
    38    39    11    1
    39    29    19    1
    40    43    12    1
    41    19    24    1
    42    19    20    1
    43    11    41    1
    44    11    40    1
    45     2    15    1
    46     2    16    1
    47    24    46    1
    48    24    21    1
    49    44    12    1
    50    12    45    1
    51    17    27    1
    52    17    16    1
    53    15    25    1
    54    15    16    1
    55    21    20    1
    56    21    34    1
    57    20    30    1
    58    16    26    1
    59     1     3    0
