@<TRIPOS>MOLECULE
1,2,3,4,5,6
 15 15 0 0 0
SMALL
GASTEIGER

@<TRIPOS>ATOM
      1 C           3.2443    5.3906    0.3279 C.2     1  UNL1       -0.0683
      2 C           4.3936    6.1986    0.4795 C.3     1  UNL1        0.0078
      3 C           4.6592    6.8412    1.6911 C.2     1  UNL1       -0.0794
      4 C           3.8252    6.6382    2.8000 C.2     1  UNL1       -0.0796
      5 C           2.7134    5.7974    2.6724 C.3     1  UNL1        0.0051
      6 C           2.4048    5.2173    1.4293 C.2     1  UNL1       -0.0768
      7 C           2.8524    4.8647   -1.0146 C.3     1  UNL1       -0.0432
      8 H           5.0132    6.4005   -0.3781 H       1  UNL1        0.0397
      9 H           5.4741    7.5403    1.7604 H       1  UNL1        0.0575
     10 H           4.0091    7.1864    3.7106 H       1  UNL1        0.0575
     11 H           2.0253    5.6669    3.4960 H       1  UNL1        0.0394
     12 H           1.4844    4.6650    1.3184 H       1  UNL1        0.0578
     13 H           3.7253    4.5474   -1.5762 H       1  UNL1        0.0275
     14 H           2.3489    5.6480   -1.5842 H       1  UNL1        0.0275
     15 H           2.1670    4.0268   -0.9157 H       1  UNL1        0.0275
@<TRIPOS>BOND
     1    14     7    1
     2    13     7    1
     3     7    15    1
     4     7     1    1
     5     8     2    1
     6     1     2    1
     7     1     6    2
     8     2     3    1
     9    12     6    1
    10     6     5    1
    11     3     9    1
    12     3     4    2
    13     5     4    1
    14     5    11    1
    15     4    10    1
