@<TRIPOS>MOLECULE
1,2,3,4,5,6
 12 12 0 0 0
SMALL
GASTEIGER

@<TRIPOS>ATOM
      1 C           0.5412   -4.8411    5.8925 C.3     1  UNL1        0.0049
      2 C           1.5264   -5.7509    5.4722 C.2     1  UNL1       -0.0797
      3 C           1.2789   -6.5765    4.3665 C.2     1  UNL1       -0.0797
      4 C           0.0492   -6.5032    3.6943 C.3     1  UNL1        0.0049
      5 C          -0.9551   -5.6344    4.1560 C.2     1  UNL1       -0.0797
      6 C          -0.7146   -4.8066    5.2592 C.2     1  UNL1       -0.0797
      7 H           0.7252   -4.2106    6.7493 H       1  UNL1        0.0394
      8 H           2.4606   -5.8208    6.0075 H       1  UNL1        0.0575
      9 H           2.0192   -7.2961    4.0548 H       1  UNL1        0.0575
     10 H          -0.1517   -7.1628    2.8650 H       1  UNL1        0.0394
     11 H          -1.9255   -5.6344    3.6846 H       1  UNL1        0.0575
     12 H          -1.4889   -4.1531    5.6303 H       1  UNL1        0.0575
@<TRIPOS>BOND
     1    10     4    1
     2    11     5    1
     3     4     5    1
     4     4     3    1
     5     9     3    1
     6     5     6    2
     7     3     2    2
     8     6    12    1
     9     6     1    1
    10     2     1    1
    11     2     8    1
    12     1     7    1
