@<TRIPOS>MOLECULE
1,2,3,4,5,6
 12 12 0 0 0
SMALL
GASTEIGER

@<TRIPOS>ATOM
      1 C           2.4472   12.9168    2.1313 C.2     1  UNL1       -0.0657
      2 C           2.5589   12.3777    0.8385 C.2     1  UNL1       -0.0798
      3 C           3.6472   12.7242    0.0363 C.3     1  UNL1       -0.0090
      4 C           4.5942   13.6551    0.5040 C.3     1  UNL1       -0.0090
      5 C           4.4437   14.2353    1.7680 C.2     1  UNL1       -0.0798
      6 C           3.3666   13.8742    2.5837 C.2     1  UNL1       -0.0657
      7 H           1.5931   12.6583    2.7424 H       1  UNL1        0.0614
      8 H           1.7881   11.7243    0.4635 H       1  UNL1        0.0575
      9 H           3.7227   12.3399   -0.9678 H       1  UNL1        0.0355
     10 H           5.3942   13.9752   -0.1415 H       1  UNL1        0.0355
     11 H           5.1242   15.0043    2.0925 H       1  UNL1        0.0575
     12 H           3.2098   14.3914    3.5173 H       1  UNL1        0.0614
@<TRIPOS>BOND
     1     9     3    1
     2    10     4    1
     3     3     4    1
     4     3     2    1
     5     8     2    1
     6     4     5    1
     7     2     1    2
     8     5    11    1
     9     5     6    2
    10     1     6    1
    11     1     7    1
    12     6    12    1
