@<TRIPOS>MOLECULE
1,2,3,4,5,6
 12 12 0 0 0
SMALL
GASTEIGER

@<TRIPOS>ATOM
      1 C           6.7996    1.5679   15.0116 C.2     1  UNL1       -0.0797
      2 C           6.0671    2.7511   15.1545 C.2     1  UNL1       -0.0797
      3 C           5.2958    2.9310   16.3079 C.3     1  UNL1        0.0049
      4 C           5.3587    1.9966   17.3637 C.2     1  UNL1       -0.0797
      5 C           6.1927    0.8772   17.2712 C.2     1  UNL1       -0.0797
      6 C           6.8620    0.6332   16.0670 C.3     1  UNL1        0.0049
      7 H           7.3365    1.3688   14.0989 H       1  UNL1        0.0575
      8 H           6.0499    3.4841   14.3643 H       1  UNL1        0.0575
      9 H           4.6597    3.7951   16.4057 H       1  UNL1        0.0394
     10 H           4.7697    2.1625   18.2505 H       1  UNL1        0.0575
     11 H           6.2715    0.1833   18.0923 H       1  UNL1        0.0575
     12 H           7.4455   -0.2641   15.9428 H       1  UNL1        0.0394
@<TRIPOS>BOND
     1     7     1    1
     2     8     2    1
     3     1     2    2
     4     1     6    1
     5     2     3    1
     6    12     6    1
     7     6     5    1
     8     3     9    1
     9     3     4    1
    10     5     4    2
    11     5    11    1
    12     4    10    1
