@<TRIPOS>MOLECULE
1,25,33,41,47,70
 70 72 0 0 0
SMALL
GASTEIGER

@<TRIPOS>ATOM
      1 C           9.1553    4.1753    8.1948 C.3     1  UNL1        0.0000
      2 O           8.8423    5.4508    7.8575 O.3     1  UNL1        0.0000
      3 SI          8.8595    6.3881    6.5081 Si      1  UNL1        0.0000
      4 C          10.6093    7.0705    6.1513 C.3     1  UNL1        0.0000
      5 H          11.0120    7.6373    6.9859 H       1  UNL1        0.0000
      6 H          10.5866    7.7358    5.2941 H       1  UNL1        0.0000
      7 H          11.3136    6.2757    5.9175 H       1  UNL1        0.0000
      8 C           8.3405    5.4532    4.9230 C.3     1  UNL1        0.0000
      9 H           7.2640    5.3756    4.8067 H       1  UNL1        0.0000
     10 H           8.7368    4.4408    4.9182 H       1  UNL1        0.0000
     11 H           8.7214    5.9539    4.0385 H       1  UNL1        0.0000
     12 C           7.6482    7.7909    7.0141 C.3     1  UNL1        0.0000
     13 C           8.1319    8.4802    8.2931 C.3     1  UNL1        0.0000
     14 H           8.1734    7.7706    9.1155 H       1  UNL1        0.0000
     15 H           7.4484    9.2818    8.5706 H       1  UNL1        0.0000
     16 H           9.1207    8.9113    8.1553 H       1  UNL1        0.0000
     17 C           6.2409    7.2448    7.2732 C.3     1  UNL1        0.0000
     18 H           5.8323    6.7743    6.3804 H       1  UNL1        0.0000
     19 H           5.5713    8.0550    7.5599 H       1  UNL1        0.0000
     20 H           6.2533    6.5192    8.0837 H       1  UNL1        0.0000
     21 C           7.5736    8.8280    5.8926 C.3     1  UNL1        0.0000
     22 H           7.2272    8.3752    4.9664 H       1  UNL1        0.0000
     23 H           8.5495    9.2711    5.7106 H       1  UNL1        0.0000
     24 H           6.8836    9.6274    6.1597 H       1  UNL1        0.0000
     25 C          10.3568    3.9042    8.8544 C.3     1  UNL1        0.0000
     26 C          11.2916    5.0499    9.1446 C.3     1  UNL1        0.0000
     27 H          11.2623    5.7368    8.2981 H       1  UNL1        0.0000
     28 H          12.3163    4.6936    9.2512 H       1  UNL1        0.0000
     29 C          10.8804    5.8158   10.4042 C.3     1  UNL1        0.0000
     30 H          11.5519    6.6557   10.5670 H       1  UNL1        0.0000
     31 H          10.9109    5.1697   11.2786 H       1  UNL1        0.0000
     32 H           9.8675    6.1956   10.2973 H       1  UNL1        0.0000
     33 C          10.6250    2.5741    9.2908 C.3     1  UNL1        0.0000
     34 C          11.9054    2.2268   10.0070 C.3     1  UNL1        0.0000
     35 H          11.7334    1.3615   10.6488 H       1  UNL1        0.0000
     36 H          12.2283    3.0514   10.6426 H       1  UNL1        0.0000
     37 C          13.0008    1.8690    8.9985 C.3     1  UNL1        0.0000
     38 H          13.9261    1.6293    9.5166 H       1  UNL1        0.0000
     39 H          13.1901    2.6949    8.3150 H       1  UNL1        0.0000
     40 H          12.6946    1.0034    8.4156 H       1  UNL1        0.0000
     41 C           9.7768    1.5225    8.9060 C.3     1  UNL1        0.0000
     42 O          10.1367    0.2220    9.2108 O.3     1  UNL1        0.0000
     43 C           9.4359   -0.3709   10.2922 C.3     1  UNL1        0.0000
     44 H           9.5629    0.2130   11.2110 H       1  UNL1        0.0000
     45 H           9.8701   -1.3612   10.4185 H       1  UNL1        0.0000
     46 H           8.3663   -0.4625   10.0833 H       1  UNL1        0.0000
     47 C           8.6272    1.7666    8.0975 C.ar    1  UNL1        0.0000
     48 C           7.8195    0.7271    7.5767 C.ar    1  UNL1        0.0000
     49 H           8.1337   -0.2946    7.7326 H       1  UNL1        0.0000
     50 C           6.6829    0.9999    6.8751 C.ar    1  UNL1        0.0000
     51 H           6.0913    0.1819    6.4962 H       1  UNL1        0.0000
     52 C           6.2576    2.3310    6.6524 C.ar    1  UNL1        0.0000
     53 C           5.0298    2.6640    5.9642 C.2     1  UNL1        0.0000
     54 H           4.7947    3.7200    5.9637 H       1  UNL1        0.0000
     55 C           4.2065    1.8055    5.3423 C.2     1  UNL1        0.0000
     56 H           4.4567    0.7531    5.3147 H       1  UNL1        0.0000
     57 C           2.9775    2.1409    4.6502 C.ar    1  UNL1        0.0000
     58 C           2.3936    3.4102    4.6906 C.ar    1  UNL1        0.0000
     59 H           2.8530    4.1976    5.2680 H       1  UNL1        0.0000
     60 C           1.2202    3.6701    4.0113 C.ar    1  UNL1        0.0000
     61 H           0.7823    4.6568    4.0577 H       1  UNL1        0.0000
     62 C           0.5990    2.6739    3.2749 C.ar    1  UNL1        0.0000
     63 H          -0.3190    2.8816    2.7457 H       1  UNL1        0.0000
     64 C           1.1613    1.4087    3.2270 C.ar    1  UNL1        0.0000
     65 H           0.6816    0.6250    2.6587 H       1  UNL1        0.0000
     66 C           2.3329    1.1459    3.9081 C.ar    1  UNL1        0.0000
     67 H           2.7647    0.1555    3.8666 H       1  UNL1        0.0000
     68 C           7.0660    3.3579    7.1112 C.ar    1  UNL1        0.0000
     69 H           6.7738    4.3824    6.9431 H       1  UNL1        0.0000
     70 C           8.2696    3.1147    7.7891 C.ar    1  UNL1        0.0000
@<TRIPOS>BOND
     1    65    64    1
     2    63    62    1
     3    64    62   ar
     4    64    66   ar
     5    62    60   ar
     6    67    66    1
     7    66    57   ar
     8    60    61    1
     9    60    58   ar
    10    11     8    1
    11    57    58   ar
    12    57    55    1
    13    58    59    1
    14     9     8    1
    15    10     8    1
    16     8     3    1
    17    22    21    1
    18     6     4    1
    19    56    55    1
    20    55    53    2
    21    23    21    1
    22    21    24    1
    23    21    12    1
    24     7     4    1
    25    54    53    1
    26    53    52    1
    27     4     3    1
    28     4     5    1
    29    18    17    1
    30    51    50    1
    31     3    12    1
    32     3     2    1
    33    52    50   ar
    34    52    68   ar
    35    50    48   ar
    36    69    68    1
    37    12    17    1
    38    12    13    1
    39    68    70   ar
    40    17    19    1
    41    17    20    1
    42    48    49    1
    43    48    47   ar
    44    70    47   ar
    45    70     1    1
    46     2     1    1
    47    47    41    1
    48    16    13    1
    49     1    25    1
    50    13    15    1
    51    13    14    1
    52    27    26    1
    53    39    37    1
    54    40    37    1
    55    25    26    1
    56    25    33    1
    57    41    42    1
    58    41    33    1
    59    37    38    1
    60    37    34    1
    61    26    28    1
    62    26    29    1
    63    42    43    1
    64    33    34    1
    65    34    36    1
    66    34    35    1
    67    46    43    1
    68    43    45    1
    69    43    44    1
    70    32    29    1
    71    29    30    1
    72    29    31    1
