@<TRIPOS>MOLECULE
1,3,5,7,9,11
 12 12 0 0 0
SMALL
GASTEIGER

@<TRIPOS>ATOM
      1 C           4.0461   10.3626    4.8197 C.2     1  UNL1       -0.0797
      2 H           3.7064   11.1458    4.1530 H       1  UNL1        0.0575
      3 C           3.4407    9.0885    4.7581 C.2     1  UNL1       -0.0797
      4 H           2.6385    8.9142    4.0501 H       1  UNL1        0.0575
      5 C           3.9325    8.0344    5.5330 C.3     1  UNL1        0.0049
      6 H           3.5103    7.0411    5.4377 H       1  UNL1        0.0394
      7 C           5.0634    8.2397    6.3594 C.2     1  UNL1       -0.0797
      8 H           5.5000    7.3971    6.8824 H       1  UNL1        0.0575
      9 C           5.6749    9.4922    6.4156 C.2     1  UNL1       -0.0797
     10 H           6.5983    9.6262    6.9658 H       1  UNL1        0.0575
     11 C           5.1382   10.5691    5.6708 C.3     1  UNL1        0.0049
     12 H           5.6610   11.5212    5.6623 H       1  UNL1        0.0394
@<TRIPOS>BOND
     1     4     3    1
     2     2     1    1
     3     3     1    2
     4     3     5    1
     5     1    11    1
     6     6     5    1
     7     5     7    1
     8    12    11    1
     9    11     9    1
    10     7     9    2
    11     7     8    1
    12     9    10    1
