@<TRIPOS>MOLECULE
1,3,5,7,9,11
 12 12 0 0 0
SMALL
GASTEIGER

@<TRIPOS>ATOM
      1 C          -2.6057    4.4804    5.3919 C.3     1  UNL1        0.0049
      2 H          -3.6648    4.3832    5.6149 H       1  UNL1        0.0394
      3 C          -2.1814    5.3844    4.4067 C.2     1  UNL1       -0.0797
      4 H          -2.9036    5.9877    3.8693 H       1  UNL1        0.0575
      5 C          -0.8015    5.5896    4.2053 C.2     1  UNL1       -0.0797
      6 H          -0.4669    6.3488    3.5064 H       1  UNL1        0.0575
      7 C           0.1390    4.9126    4.9932 C.3     1  UNL1        0.0049
      8 H           1.1920    5.1524    4.9024 H       1  UNL1        0.0394
      9 C          -0.3019    4.0404    6.0200 C.2     1  UNL1       -0.0797
     10 H           0.4181    3.6138    6.7084 H       1  UNL1        0.0575
     11 C          -1.6661    3.8443    6.2331 C.2     1  UNL1       -0.0797
     12 H          -2.0122    3.2645    7.0807 H       1  UNL1        0.0575
@<TRIPOS>BOND
     1     6     5    1
     2     4     3    1
     3     5     3    2
     4     5     7    1
     5     3     1    1
     6     8     7    1
     7     7     9    1
     8     1     2    1
     9     1    11    1
    10     9    11    2
    11     9    10    1
    12    11    12    1
