@<TRIPOS>MOLECULE
1,3,5,7,9,11
 12 12 0 0 0
SMALL
GASTEIGER

@<TRIPOS>ATOM
      1 C          13.8876   10.6837   12.8914 C.3     1  UNL1        0.0049
      2 H          13.4185   11.6638   12.8901 H       1  UNL1        0.0394
      3 C          14.9714   10.4297   13.7431 C.2     1  UNL1       -0.0797
      4 H          15.3547   11.2022   14.3985 H       1  UNL1        0.0575
      5 C          15.5055    9.1271   13.8145 C.2     1  UNL1       -0.0797
      6 H          16.2967    8.9179   14.5256 H       1  UNL1        0.0575
      7 C          14.9599    8.0911   13.0469 C.3     1  UNL1        0.0049
      8 H          15.3273    7.0767   13.1534 H       1  UNL1        0.0394
      9 C          13.8369    8.3463   12.2247 C.2     1  UNL1       -0.0797
     10 H          13.3542    7.5240   11.7093 H       1  UNL1        0.0575
     11 C          13.2864    9.6278   12.1682 C.2     1  UNL1       -0.0797
     12 H          12.3655    9.8031   11.6260 H       1  UNL1        0.0575
@<TRIPOS>BOND
     1    12    11    1
     2    10     9    1
     3    11     9    2
     4    11     1    1
     5     9     7    1
     6     2     1    1
     7     1     3    1
     8     7     8    1
     9     7     5    1
    10     3     5    2
    11     3     4    1
    12     5     6    1
