@<TRIPOS>MOLECULE
3,7,8,9,10,11
 39 40 0 0 0
SMALL
GASTEIGER

@<TRIPOS>ATOM
      1 SI          0.8808    4.2026    3.3967 Si      1  UNL1        0.0000
      2 C           2.4862    3.7575    4.2676 C.2     1  UNL1        0.0000
      3 C           2.4908    2.5424    5.0999 C.3     1  UNL1        0.0000
      4 C           3.8465    2.3896    5.5691 C.2     1  UNL1        0.0000
      5 C           4.6139    3.3683    4.9887 C.2     1  UNL1        0.0000
      6 C           3.7886    4.2082    4.1919 C.2     1  UNL1        0.0000
      7 C           0.3967    2.4473    2.8812 C.3     1  UNL1        0.0000
      8 C          -0.1358    1.3975    3.6853 C.2     1  UNL1        0.0000
      9 C           0.0555    0.1797    3.0027 C.2     1  UNL1        0.0000
     10 C           0.7358    0.4432    1.7873 C.2     1  UNL1        0.0000
     11 C           0.9311    1.8385    1.7148 C.2     1  UNL1        0.0000
     12 C           4.3022    5.3995    3.4510 C.3     1  UNL1        0.0000
     13 C           4.2839    1.3798    6.5854 C.3     1  UNL1        0.0000
     14 C          -0.9576    1.5460    4.9352 C.3     1  UNL1        0.0000
     15 C           1.0293   -0.5518    0.7017 C.3     1  UNL1        0.0000
     16 C           1.0009    5.2816    1.8204 C.3     1  UNL1        0.0000
     17 C          -0.3874    5.0633    4.5484 C.3     1  UNL1        0.0000
     18 H           1.6626    2.3333    5.7858 H       1  UNL1        0.0000
     19 H           3.9983    1.7066    7.5885 H       1  UNL1        0.0000
     20 H           1.3345    2.3680    0.8593 H       1  UNL1        0.0000
     21 H          -1.4096    4.8584    4.2466 H       1  UNL1        0.0000
     22 H           1.9564   -0.3011    0.1822 H       1  UNL1        0.0000
     23 H           5.3654    1.2589    6.5643 H       1  UNL1        0.0000
     24 H           3.8111    0.4132    6.3985 H       1  UNL1        0.0000
     25 H           5.6773    3.4944    5.1072 H       1  UNL1        0.0000
     26 H          -0.3255   -0.7881    3.3109 H       1  UNL1        0.0000
     27 H           0.2223   -0.5508   -0.0359 H       1  UNL1        0.0000
     28 H          -0.7192    2.4661    5.4642 H       1  UNL1        0.0000
     29 H           3.5333    5.8224    2.8113 H       1  UNL1        0.0000
     30 H          -0.2753    4.7615    5.5849 H       1  UNL1        0.0000
     31 H           5.1673    5.1309    2.8457 H       1  UNL1        0.0000
     32 H           1.2087    6.3139    2.0797 H       1  UNL1        0.0000
     33 H          -2.0199    1.5775    4.6783 H       1  UNL1        0.0000
     34 H           0.0604    5.2668    1.2784 H       1  UNL1        0.0000
     35 H          -0.2448    6.1379    4.5113 H       1  UNL1        0.0000
     36 H          -0.8058    0.6985    5.6066 H       1  UNL1        0.0000
     37 H           1.7783    4.9466    1.1416 H       1  UNL1        0.0000
     38 H           1.1129   -1.5603    1.1078 H       1  UNL1        0.0000
     39 H           4.6212    6.1671    4.1577 H       1  UNL1        0.0000
@<TRIPOS>BOND
     1    27    15    1
     2    22    15    1
     3    15    38    1
     4    15    10    1
     5    20    11    1
     6    37    16    1
     7    34    16    1
     8    11    10    2
     9    11     7    1
    10    10     9    1
    11    16    32    1
    12    16     1    1
    13    29    12    1
    14    31    12    1
    15     7     1    1
    16     7     8    1
    17     9    26    1
    18     9     8    2
    19     1     2    1
    20     1    17    1
    21    12    39    1
    22    12     6    1
    23     8    14    1
    24     6     2    2
    25     6     5    1
    26    21    17    1
    27     2     3    1
    28    35    17    1
    29    17    30    1
    30    33    14    1
    31    14    28    1
    32    14    36    1
    33     5    25    1
    34     5     4    2
    35     3     4    1
    36     3    18    1
    37     4    13    1
    38    24    13    1
    39    23    13    1
    40    13    19    1
