@<TRIPOS>MOLECULE
2,6,21,34,38,53
 57 62 0 0 0
SMALL
GASTEIGER

@<TRIPOS>ATOM
      1 SI         14.7625    9.8694    4.7493 Si      1  UNL1        0.0000
      2 C          15.1365    8.4691    3.5406 C.3     1  UNL1        0.0000
      3 C          14.2631    7.6537    2.7845 C.2     1  UNL1        0.0000
      4 C          14.9897    6.9597    1.8077 C.2     1  UNL1        0.0000
      5 H          14.5829    6.2038    1.1558 H       1  UNL1        0.0000
      6 C          16.3529    7.3022    1.9262 C.3     1  UNL1        0.0000
      7 C          17.5280    6.7547    1.3229 C.ar    1  UNL1        0.0000
      8 C          17.4830    5.8301    0.2664 C.ar    1  UNL1        0.0000
      9 H          16.5210    5.5355   -0.1288 H       1  UNL1        0.0000
     10 C          18.6389    5.3150   -0.2670 C.ar    1  UNL1        0.0000
     11 H          18.5919    4.6076   -1.0820 H       1  UNL1        0.0000
     12 C          19.8810    5.7001    0.2423 C.ar    1  UNL1        0.0000
     13 H          20.7844    5.2878   -0.1827 H       1  UNL1        0.0000
     14 C          19.9520    6.5958    1.2805 C.ar    1  UNL1        0.0000
     15 H          20.9131    6.8931    1.6766 H       1  UNL1        0.0000
     16 C          18.7898    7.1447    1.8458 C.ar    1  UNL1        0.0000
     17 C          18.8630    8.0563    2.9399 C.2     1  UNL1        0.0000
     18 H          19.8449    8.2925    3.3275 H       1  UNL1        0.0000
     19 C          17.7488    8.6005    3.5082 C.2     1  UNL1        0.0000
     20 H          17.8362    9.2236    4.3911 H       1  UNL1        0.0000
     21 C          16.4606    8.2338    3.0310 C.3     1  UNL1        0.0000
     22 C          12.8169    7.4080    3.0917 C.3     1  UNL1        0.0000
     23 H          12.1867    8.2653    2.8584 H       1  UNL1        0.0000
     24 H          12.6934    7.1853    4.1506 H       1  UNL1        0.0000
     25 H          12.4574    6.5596    2.5146 H       1  UNL1        0.0000
     26 C          15.7738    9.7802    6.3712 C.3     1  UNL1        0.0000
     27 H          15.5323   10.6217    7.0120 H       1  UNL1        0.0000
     28 H          16.8470    9.7746    6.2296 H       1  UNL1        0.0000
     29 H          15.5153    8.8750    6.9115 H       1  UNL1        0.0000
     30 C          12.9625    9.9788    5.3890 C.3     1  UNL1        0.0000
     31 H          12.8326   10.8959    5.9549 H       1  UNL1        0.0000
     32 H          12.7501    9.1512    6.0576 H       1  UNL1        0.0000
     33 H          12.2100    9.9718    4.6109 H       1  UNL1        0.0000
     34 C          15.2294   11.2468    3.5466 C.3     1  UNL1        0.0000
     35 C          16.3879   12.0551    3.4847 C.2     1  UNL1        0.0000
     36 C          16.4310   12.7279    2.2563 C.2     1  UNL1        0.0000
     37 H          17.1593   13.4753    1.9863 H       1  UNL1        0.0000
     38 C          15.2888   12.3785    1.5062 C.3     1  UNL1        0.0000
     39 C          14.7478   12.9080    0.2931 C.ar    1  UNL1        0.0000
     40 C          15.4456   13.8150   -0.5214 C.ar    1  UNL1        0.0000
     41 H          16.4458   14.1095   -0.2367 H       1  UNL1        0.0000
     42 C          14.8758   14.3133   -1.6673 C.ar    1  UNL1        0.0000
     43 H          15.4236   15.0074   -2.2879 H       1  UNL1        0.0000
     44 C          13.5848   13.9284   -2.0356 C.ar    1  UNL1        0.0000
     45 H          13.1447   14.3274   -2.9378 H       1  UNL1        0.0000
     46 C          12.8782   13.0499   -1.2521 C.ar    1  UNL1        0.0000
     47 H          11.8780   12.7528   -1.5355 H       1  UNL1        0.0000
     48 C          13.4327   12.5186   -0.0766 C.ar    1  UNL1        0.0000
     49 C          12.6891   11.6256    0.7499 C.2     1  UNL1        0.0000
     50 H          11.6780   11.3899    0.4462 H       1  UNL1        0.0000
     51 C          13.2042   11.0984    1.8977 C.2     1  UNL1        0.0000
     52 H          12.5826   10.4904    2.5453 H       1  UNL1        0.0000
     53 C          14.5116   11.4650    2.3197 C.3     1  UNL1        0.0000
     54 C          17.3297   12.3151    4.6212 C.3     1  UNL1        0.0000
     55 H          17.9616   11.4571    4.8472 H       1  UNL1        0.0000
     56 H          16.7685   12.5588    5.5221 H       1  UNL1        0.0000
     57 H          17.9767   13.1545    4.3779 H       1  UNL1        0.0000
@<TRIPOS>BOND
     1    45    44    1
     2    43    42    1
     3    44    42   ar
     4    44    46   ar
     5    42    40   ar
     6    47    46    1
     7    46    48   ar
     8    11    10    1
     9    40    41    1
    10    40    39   ar
    11    10    12   ar
    12    10     8   ar
    13    13    12    1
    14     9     8    1
    15    48    39   ar
    16    48    49    1
    17    12    14   ar
    18     8     7   ar
    19    39    38    1
    20    50    49    1
    21    49    51    2
    22     5     4    1
    23    14    15    1
    24    14    16   ar
    25     7    16   ar
    26     7     6    1
    27    38    36    1
    28    38    53    1
    29     4     6    1
    30     4     3    2
    31    16    17    1
    32    51    53    1
    33    51    52    1
    34     6    21    1
    35    37    36    1
    36    36    35    2
    37    53    34    1
    38    25    22    1
    39     3    22    1
    40     3     2    1
    41    23    22    1
    42    17    18    1
    43    17    19    2
    44    21    19    1
    45    21     2    1
    46    22    24    1
    47    35    34    1
    48    35    54    1
    49    19    20    1
    50     2     1    1
    51    34     1    1
    52    57    54    1
    53    33    30    1
    54    54    55    1
    55    54    56    1
    56     1    30    1
    57     1    26    1
    58    30    31    1
    59    30    32    1
    60    28    26    1
    61    26    29    1
    62    26    27    1
