@<TRIPOS>MOLECULE
13,14,15,16,17,18
 52 54 0 0 0
SMALL
GASTEIGER

@<TRIPOS>ATOM
      1 SI          1.7900   10.5411   12.3253 Si      1  UNL1        0.0000
      2 SI          3.4726    3.1733    8.3559 Si      1  UNL1        0.0000
      3 C           2.8382    8.9574   12.4291 C.2     1  UNL1        0.0000
      4 C           3.7234    8.6300   13.3803 C.2     1  UNL1        0.0000
      5 C           4.4239    7.3304   13.2318 C.ar    1  UNL1        0.0000
      6 C           3.8013    6.1485   13.6278 C.ar    1  UNL1        0.0000
      7 C           4.0798    4.9595   12.9793 C.ar    1  UNL1        0.0000
      8 C           4.9850    4.9284   11.9203 C.ar    1  UNL1        0.0000
      9 C           5.8055    6.0400   11.7382 C.ar    1  UNL1        0.0000
     10 C           5.5283    7.2283   12.3879 C.ar    1  UNL1        0.0000
     11 C           4.8170    3.9394   10.8272 C.2     1  UNL1        0.0000
     12 C           3.9332    4.2360    9.8646 C.2     1  UNL1        0.0000
     13 C           3.2378    5.5343   10.0316 C.3     1  UNL1        0.0000
     14 C           3.8196    6.7259    9.5840 C.2     1  UNL1        0.0000
     15 C           3.5552    7.9414   10.2616 C.2     1  UNL1        0.0000
     16 C           2.6823    7.9555   11.3485 C.3     1  UNL1        0.0000
     17 C           1.8109    6.8562   11.5037 C.3     1  UNL1        0.0000
     18 C           2.0976    5.6400   10.8554 C.3     1  UNL1        0.0000
     19 C           1.9439   11.1881   10.5405 C.3     1  UNL1        0.0000
     20 C           2.4543   11.8074   13.5848 C.3     1  UNL1        0.0000
     21 C          -0.0138   10.0648   12.7133 C.3     1  UNL1        0.0000
     22 C           4.7760    1.7981    8.1497 C.3     1  UNL1        0.0000
     23 C           1.7430    2.4393    8.6768 C.3     1  UNL1        0.0000
     24 C           3.4277    4.3301    6.8447 C.3     1  UNL1        0.0000
     25 H           3.9268    9.2808   14.2169 H       1  UNL1        0.0000
     26 H           3.0100    6.1843   14.3633 H       1  UNL1        0.0000
     27 H           3.5046    4.0748   13.2137 H       1  UNL1        0.0000
     28 H           6.5893    6.0067   10.9946 H       1  UNL1        0.0000
     29 H           6.0977    8.1151   12.1477 H       1  UNL1        0.0000
     30 H           5.3866    3.0227   10.8130 H       1  UNL1        0.0000
     31 H           4.6696    6.6792    8.9114 H       1  UNL1        0.0000
     32 H           4.2001    8.7943   10.0856 H       1  UNL1        0.0000
     33 H           1.0904    6.8709   12.3137 H       1  UNL1        0.0000
     34 H           1.6009    4.7326   11.1823 H       1  UNL1        0.0000
     35 H           1.6222   10.4345    9.8244 H       1  UNL1        0.0000
     36 H           2.9647   11.4673   10.2948 H       1  UNL1        0.0000
     37 H           1.3227   12.0654   10.3899 H       1  UNL1        0.0000
     38 H           1.9181   12.7468   13.4977 H       1  UNL1        0.0000
     39 H           3.5079   12.0169   13.4284 H       1  UNL1        0.0000
     40 H           2.3334   11.4582   14.6054 H       1  UNL1        0.0000
     41 H          -0.6468   10.9458   12.7544 H       1  UNL1        0.0000
     42 H          -0.1027    9.5538   13.6681 H       1  UNL1        0.0000
     43 H          -0.4174    9.4121   11.9448 H       1  UNL1        0.0000
     44 H           4.5797    1.2211    7.2519 H       1  UNL1        0.0000
     45 H           4.7656    1.1080    8.9875 H       1  UNL1        0.0000
     46 H           5.7798    2.2026    8.0654 H       1  UNL1        0.0000
     47 H           1.4640    1.7479    7.8877 H       1  UNL1        0.0000
     48 H           0.9886    3.2204    8.7039 H       1  UNL1        0.0000
     49 H           1.6985    1.8965    9.6170 H       1  UNL1        0.0000
     50 H           3.1406    3.7889    5.9487 H       1  UNL1        0.0000
     51 H           4.3936    4.7880    6.6505 H       1  UNL1        0.0000
     52 H           2.7024    5.1290    6.9898 H       1  UNL1        0.0000
@<TRIPOS>BOND
     1    50    24    1
     2    51    24    1
     3    24    52    1
     4    24     2    1
     5    44    22    1
     6    47    23    1
     7    46    22    1
     8    22     2    1
     9    22    45    1
    10     2    23    1
    11     2    12    1
    12    23    48    1
    13    23    49    1
    14    31    14    1
    15    14    13    1
    16    14    15    2
    17    35    19    1
    18    12    13    1
    19    12    11    2
    20    13    18    1
    21    32    15    1
    22    15    16    1
    23    36    19    1
    24    37    19    1
    25    19     1    1
    26    30    11    1
    27    11     8    1
    28    18    34    1
    29    18    17    1
    30    28     9    1
    31    16    17    1
    32    16     3    1
    33    17    33    1
    34     9     8   ar
    35     9    10   ar
    36     8     7   ar
    37    43    21    1
    38    29    10    1
    39     1     3    1
    40     1    21    1
    41     1    20    1
    42    10     5   ar
    43     3     4    2
    44    21    41    1
    45    21    42    1
    46     7    27    1
    47     7     6   ar
    48     5     4    1
    49     5     6   ar
    50     4    25    1
    51    39    20    1
    52    38    20    1
    53    20    40    1
    54     6    26    1
