@<TRIPOS>MOLECULE
1,6,8,10,11,13
 24 24 0 0 0
SMALL
GASTEIGER

@<TRIPOS>ATOM
      1 C           5.5783   10.7461   12.8383 C.2     1  UNL1       -0.0683
      2 C           4.5540   10.1323   13.7445 C.3     1  UNL1       -0.0432
      3 H           3.5660   10.5369   13.5188 H       1  UNL1        0.0275
      4 H           4.7837   10.3363   14.7880 H       1  UNL1        0.0275
      5 H           4.5281    9.0558   13.5859 H       1  UNL1        0.0275
      6 C           6.4812   11.7332   13.3101 C.3     1  UNL1        0.0081
      7 H           6.4207   12.0400   14.3481 H       1  UNL1        0.0397
      8 C           7.3255   12.4381   12.4362 C.2     1  UNL1       -0.0760
      9 H           7.9066   13.2721   12.8114 H       1  UNL1        0.0578
     10 C           7.3520   12.1185   11.0500 C.2     1  UNL1       -0.0626
     11 C           6.5155   11.0798   10.5952 C.3     1  UNL1        0.0086
     12 H           6.4666   10.8480    9.5369 H       1  UNL1        0.0397
     13 C           5.6303   10.4150   11.4792 C.2     1  UNL1       -0.0765
     14 H           4.9371    9.6866   11.0781 H       1  UNL1        0.0578
     15 C           8.1082   12.9639   10.0488 C.3     1  UNL1       -0.0250
     16 H           8.4393   12.3111    9.2339 H       1  UNL1        0.0340
     17 C           9.3410   13.6510   10.6345 C.3     1  UNL1       -0.0589
     18 H           9.9572   14.0447    9.8298 H       1  UNL1        0.0235
     19 H           9.9357   12.9417   11.2039 H       1  UNL1        0.0235
     20 H           9.0603   14.4802   11.2810 H       1  UNL1        0.0235
     21 C           7.1381   14.0046    9.4740 C.3     1  UNL1       -0.0589
     22 H           7.6474   14.6184    8.7351 H       1  UNL1        0.0235
     23 H           6.7663   14.6527   10.2656 H       1  UNL1        0.0235
     24 H           6.2881   13.5213    8.9978 H       1  UNL1        0.0235
@<TRIPOS>BOND
     1    22    21    1
     2    24    21    1
     3    16    15    1
     4    21    15    1
     5    21    23    1
     6    12    11    1
     7    18    17    1
     8    15    17    1
     9    15    10    1
    10    11    10    1
    11    11    13    1
    12    17    19    1
    13    17    20    1
    14    10     8    2
    15    14    13    1
    16    13     1    2
    17     8     9    1
    18     8     6    1
    19     1     6    1
    20     1     2    1
    21     6     7    1
    22     3     2    1
    23     5     2    1
    24     2     4    1
