@<TRIPOS>MOLECULE
1,6,8,10,11,13
 24 24 0 0 0
SMALL
GASTEIGER

@<TRIPOS>ATOM
      1 C          -0.6455    3.5086    5.7455 C.2     1  UNL1       -0.0683
      2 C          -1.1249    2.9803    7.0632 C.3     1  UNL1       -0.0432
      3 H          -1.5419    1.9840    6.9217 H       1  UNL1        0.0275
      4 H          -1.9142    3.6229    7.4577 H       1  UNL1        0.0275
      5 H          -0.3181    2.9316    7.7898 H       1  UNL1        0.0275
      6 C           0.6642    4.0414    5.5854 C.3     1  UNL1        0.0081
      7 H           1.3359    4.0682    6.4398 H       1  UNL1        0.0397
      8 C           1.0380    4.6932    4.3938 C.2     1  UNL1       -0.0760
      9 H           1.9829    5.2287    4.3396 H       1  UNL1        0.0578
     10 C           0.1477    4.7256    3.2742 C.2     1  UNL1       -0.0626
     11 C          -1.1137    4.1048    3.4171 C.3     1  UNL1        0.0086
     12 H          -1.8410    4.1511    2.6136 H       1  UNL1        0.0397
     13 C          -1.5146    3.5539    4.6590 C.2     1  UNL1       -0.0765
     14 H          -2.5271    3.1889    4.7691 H       1  UNL1        0.0578
     15 C           0.5077    5.5126    2.0338 C.3     1  UNL1       -0.0250
     16 H           1.5813    5.7306    2.0701 H       1  UNL1        0.0340
     17 C          -0.2584    6.8401    2.0326 C.3     1  UNL1       -0.0589
     18 H           0.0194    7.4334    1.1645 H       1  UNL1        0.0235
     19 H          -0.0333    7.4133    2.9300 H       1  UNL1        0.0235
     20 H          -1.3308    6.6607    1.9995 H       1  UNL1        0.0235
     21 C           0.2310    4.7171    0.7575 C.3     1  UNL1       -0.0589
     22 H           0.6559    5.2289   -0.1031 H       1  UNL1        0.0235
     23 H          -0.8370    4.6008    0.5920 H       1  UNL1        0.0235
     24 H           0.6804    3.7285    0.8440 H       1  UNL1        0.0235
@<TRIPOS>BOND
     1    22    21    1
     2    23    21    1
     3    21    24    1
     4    21    15    1
     5    18    17    1
     6    20    17    1
     7    17    15    1
     8    17    19    1
     9    15    16    1
    10    15    10    1
    11    12    11    1
    12    10    11    1
    13    10     8    2
    14    11    13    1
    15     9     8    1
    16     8     6    1
    17    13    14    1
    18    13     1    2
    19     6     1    1
    20     6     7    1
    21     1     2    1
    22     3     2    1
    23     2     4    1
    24     2     5    1
