@<TRIPOS>MOLECULE
2,3,4,5,6,7
 34 36 0 0 0
SMALL
GASTEIGER

@<TRIPOS>ATOM
      1 SI          3.3303    2.3281   10.6058 Si      1  UNL1        0.0000
      2 C           4.1129    1.9441    8.9372 C.3     1  UNL1        0.0000
      3 C           4.5907    2.9941    8.1518 C.3     1  UNL1        0.0000
      4 C           4.9446    2.8030    6.8045 C.2     1  UNL1        0.0000
      5 C           4.7705    1.5507    6.2205 C.2     1  UNL1        0.0000
      6 C           4.2950    0.4758    6.9942 C.3     1  UNL1        0.0000
      7 C           3.9604    0.6834    8.3311 C.3     1  UNL1        0.0000
      8 O           2.3684    3.5079    9.9788 O.3     1  UNL1        0.0000
      9 O           4.6109    2.8222   11.5170 O.3     1  UNL1        0.0000
     10 O           2.7075    0.8462   10.9561 O.3     1  UNL1        0.0000
     11 N           2.1573    2.8843   12.4970 N.3     1  UNL1        0.0000
     12 C           1.5432    4.3687   10.7053 C.3     1  UNL1        0.0000
     13 C           1.0510    3.6562   11.9722 C.3     1  UNL1        0.0000
     14 C           4.5263    3.0569   12.8889 C.3     1  UNL1        0.0000
     15 C           3.1461    3.6298   13.2411 C.3     1  UNL1        0.0000
     16 C           1.6679    0.6226   11.8588 C.3     1  UNL1        0.0000
     17 C           1.8036    1.5926   13.0407 C.3     1  UNL1        0.0000
     18 H           4.7564    3.9593    8.6131 H       1  UNL1        0.0000
     19 H           5.3857    3.6140    6.2362 H       1  UNL1        0.0000
     20 H           5.0767    1.3801    5.1942 H       1  UNL1        0.0000
     21 H           4.2391   -0.5156    6.5601 H       1  UNL1        0.0000
     22 H           3.6367   -0.1477    8.9443 H       1  UNL1        0.0000
     23 H           2.1098    5.2727   10.9628 H       1  UNL1        0.0000
     24 H           0.7044    4.6507   10.0651 H       1  UNL1        0.0000
     25 H           0.2582    2.9646   11.6873 H       1  UNL1        0.0000
     26 H           0.6560    4.3758   12.6993 H       1  UNL1        0.0000
     27 H           4.6943    2.1124   13.4214 H       1  UNL1        0.0000
     28 H           5.3172    3.7587   13.1669 H       1  UNL1        0.0000
     29 H           3.1096    4.6686   12.9110 H       1  UNL1        0.0000
     30 H           2.9802    3.5953   14.3252 H       1  UNL1        0.0000
     31 H           0.7139    0.7726   11.3405 H       1  UNL1        0.0000
     32 H           1.7253   -0.4145   12.2005 H       1  UNL1        0.0000
     33 H           2.6203    1.2512   13.6788 H       1  UNL1        0.0000
     34 H           0.8800    1.6198   13.6308 H       1  UNL1        0.0000
@<TRIPOS>BOND
     1    20     5    1
     2     5     4    2
     3     5     6    1
     4    19     4    1
     5    21     6    1
     6     4     3    1
     7     6     7    1
     8     3    18    1
     9     3     2    1
    10     7     2    1
    11     7    22    1
    12     2     1    1
    13     8     1    1
    14     8    12    1
    15    24    12    1
    16     1    10    1
    17     1     9    1
    18    12    23    1
    19    12    13    1
    20    10    16    1
    21    31    16    1
    22     9    14    1
    23    25    13    1
    24    16    32    1
    25    16    17    1
    26    13    11    1
    27    13    26    1
    28    11    17    1
    29    11    15    1
    30    14    28    1
    31    14    15    1
    32    14    27    1
    33    29    15    1
    34    17    34    1
    35    17    33    1
    36    15    30    1
