@<TRIPOS>MOLECULE
2,3,5,7,9,19
 27 28 0 0 0
SMALL
GASTEIGER

@<TRIPOS>ATOM
      1 SI          2.9288    3.2970   -0.0835 Si      1  UNL1        0.0000
      2 C           2.9366    4.3681    1.4608 C.3     1  UNL1        0.0000
      3 C           2.9433    3.9129    2.7958 C.3     1  UNL1        0.0000
      4 H           2.5899    2.9497    3.1238 H       1  UNL1        0.0000
      5 C           3.3794    4.9644    3.6405 C.3     1  UNL1        0.0000
      6 H           3.3724    4.9631    4.7170 H       1  UNL1        0.0000
      7 C           3.6441    6.0805    2.8185 C.2     1  UNL1        0.0000
      8 H           3.9097    7.0661    3.1608 H       1  UNL1        0.0000
      9 C           3.3954    5.7114    1.4836 C.2     1  UNL1        0.0000
     10 H           3.4381    6.3694    0.6323 H       1  UNL1        0.0000
     11 C           2.1910    4.2661   -1.5532 C.3     1  UNL1        0.0000
     12 H           2.7757    5.1534   -1.7721 H       1  UNL1        0.0000
     13 H           1.1698    4.5790   -1.3575 H       1  UNL1        0.0000
     14 H           2.1838    3.6512   -2.4469 H       1  UNL1        0.0000
     15 C           1.9184    1.7075    0.2020 C.3     1  UNL1        0.0000
     16 H           2.3146    1.1309    1.0307 H       1  UNL1        0.0000
     17 H           1.9543    1.0802   -0.6814 H       1  UNL1        0.0000
     18 H           0.8759    1.9248    0.4105 H       1  UNL1        0.0000
     19 C           5.6778    4.0417    0.3563 C.3     1  UNL1        0.0000
     20 H           5.5345    5.0717    0.0500 H       1  UNL1        0.0000
     21 C           6.9887    3.4691    0.2267 C.2     1  UNL1        0.0000
     22 H           7.9131    3.9842    0.4317 H       1  UNL1        0.0000
     23 C           6.8813    2.1896   -0.2373 C.2     1  UNL1        0.0000
     24 H           7.6912    1.4993   -0.4121 H       1  UNL1        0.0000
     25 C           5.5092    1.9128   -0.4723 C.2     1  UNL1        0.0000
     26 H           5.1222    0.9772   -0.8408 H       1  UNL1        0.0000
     27 C           4.7683    3.0236   -0.1642 C.2     1  UNL1        0.0000
@<TRIPOS>BOND
     1    14    11    1
     2    12    11    1
     3    11    13    1
     4    11     1    1
     5    26    25    1
     6    17    15    1
     7    25    23    1
     8    25    27    2
     9    24    23    1
    10    23    21    2
    11    27     1    1
    12    27    19    1
    13     1    15    1
    14     1     2    1
    15    20    19    1
    16    15    18    1
    17    15    16    1
    18    21    19    1
    19    21    22    1
    20    10     9    1
    21     2     9    1
    22     2     3    1
    23     9     7    2
    24     3     4    1
    25     3     5    1
    26     7     8    1
    27     7     5    1
    28     5     6    1
