@<TRIPOS>MOLECULE
5,6,7,8,9
 57 58 0 0 0
SMALL
GASTEIGER

@<TRIPOS>ATOM
      1 SI         14.2343    2.5579    0.7171 Si      1  UNL1        0.0000
      2 SI          7.6703    2.5801    1.9012 Si      1  UNL1        0.0000
      3 O          12.0793    3.5219   -0.8746 O.2     1  UNL1        0.0000
      4 O           9.2728    3.4144   -0.5395 O.2     1  UNL1        0.0000
      5 C          11.8349    1.8246    2.3591 C.3     1  UNL1        0.0000
      6 C          12.3915    2.4813    1.2400 C.3     1  UNL1        0.0000
      7 C          11.5123    3.0230    0.2787 C.2     1  UNL1        0.0000
      8 C          10.1221    2.9686    0.4621 C.2     1  UNL1        0.0000
      9 C           9.5602    2.4554    1.6450 C.3     1  UNL1        0.0000
     10 C          10.4448    1.8947    2.6003 C.3     1  UNL1        0.0000
     11 C           9.8620    1.2438    3.8274 C.3     1  UNL1        0.0000
     12 C          10.9008    1.0176    4.9176 C.3     1  UNL1        0.0000
     13 C          12.0562    0.2139    4.3345 C.3     1  UNL1        0.0000
     14 C          12.7594    1.0792    3.2901 C.3     1  UNL1        0.0000
     15 C          13.0448   -0.2284    5.4082 C.3     1  UNL1        0.0000
     16 C          11.7589    4.8687   -1.1905 C.3     1  UNL1        0.0000
     17 C           9.2509    2.5778   -1.6811 C.3     1  UNL1        0.0000
     18 C          14.7772    4.2551    0.0351 C.3     1  UNL1        0.0000
     19 C          14.4125    1.1806   -0.5992 C.3     1  UNL1        0.0000
     20 C          15.4859    2.2491    2.1314 C.3     1  UNL1        0.0000
     21 C           6.6427    3.3603    0.4980 C.3     1  UNL1        0.0000
     22 C           7.3631    3.6642    3.4491 C.3     1  UNL1        0.0000
     23 C           6.9842    0.7988    2.1218 C.3     1  UNL1        0.0000
     24 H           9.0541    1.8620    4.2152 H       1  UNL1        0.0000
     25 H           9.4331    0.2780    3.5399 H       1  UNL1        0.0000
     26 H          11.2681    1.9787    5.2844 H       1  UNL1        0.0000
     27 H          10.4456    0.4846    5.7540 H       1  UNL1        0.0000
     28 H          11.6469   -0.6800    3.8477 H       1  UNL1        0.0000
     29 H          13.4210    0.4502    2.6900 H       1  UNL1        0.0000
     30 H          13.3840    1.8073    3.8138 H       1  UNL1        0.0000
     31 H          13.8802   -0.7652    4.9637 H       1  UNL1        0.0000
     32 H          12.5593   -0.8849    6.1265 H       1  UNL1        0.0000
     33 H          13.4350    0.6348    5.9424 H       1  UNL1        0.0000
     34 H          15.8544    4.3588    0.1245 H       1  UNL1        0.0000
     35 H          14.3283    5.0727    0.5898 H       1  UNL1        0.0000
     36 H          14.5224    4.3776   -1.0107 H       1  UNL1        0.0000
     37 H          15.4339    1.1326   -0.9616 H       1  UNL1        0.0000
     38 H          13.7669    1.3705   -1.4505 H       1  UNL1        0.0000
     39 H          14.1595    0.2008   -0.2033 H       1  UNL1        0.0000
     40 H          16.4799    2.4712    1.7561 H       1  UNL1        0.0000
     41 H          15.5080    1.2289    2.4956 H       1  UNL1        0.0000
     42 H          15.3112    2.9079    2.9759 H       1  UNL1        0.0000
     43 H           5.6130    3.4614    0.8302 H       1  UNL1        0.0000
     44 H           6.6368    2.7578   -0.4038 H       1  UNL1        0.0000
     45 H           7.0074    4.3468    0.2355 H       1  UNL1        0.0000
     46 H           6.5584    4.3667    3.2581 H       1  UNL1        0.0000
     47 H           8.2421    4.2458    3.7179 H       1  UNL1        0.0000
     48 H           7.0695    3.0762    4.3129 H       1  UNL1        0.0000
     49 H           5.9365    0.7769    1.8391 H       1  UNL1        0.0000
     50 H           7.0437    0.4585    3.1495 H       1  UNL1        0.0000
     51 H           7.5009    0.0711    1.5022 H       1  UNL1        0.0000
     52 H          12.3689    5.1248   -2.0547 H       1  UNL1        0.0000
     53 H          12.0027    5.5250   -0.3474 H       1  UNL1        0.0000
     54 H           8.5735    3.0513   -2.3891 H       1  UNL1        0.0000
     55 H          10.7026    4.9902   -1.4386 H       1  UNL1        0.0000
     56 H          10.2428    2.4793   -2.1326 H       1  UNL1        0.0000
     57 H           8.8739    1.5812   -1.4239 H       1  UNL1        0.0000
@<TRIPOS>BOND
     1    54    17    1
     2    56    17    1
     3    52    16    1
     4    17    57    1
     5    17     4    1
     6    38    19    1
     7    55    16    1
     8    16     3    1
     9    16    53    1
    10    36    18    1
    11    37    19    1
    12     3     7    1
    13    19    39    1
    14    19     1    1
    15     4     8    1
    16    44    21    1
    17    18    34    1
    18    18    35    1
    19    18     1    1
    20    45    21    1
    21     7     8    2
    22     7     6    1
    23     8     9    1
    24    21    43    1
    25    21     2    1
    26     1     6    1
    27     1    20    1
    28     6     5    1
    29    51    23    1
    30     9     2    1
    31     9    10    1
    32    40    20    1
    33    49    23    1
    34     2    23    1
    35     2    22    1
    36    23    50    1
    37    20    41    1
    38    20    42    1
    39     5    10    1
    40     5    14    1
    41    10    11    1
    42    29    14    1
    43    46    22    1
    44    14    30    1
    45    14    13    1
    46    22    47    1
    47    22    48    1
    48    25    11    1
    49    11    24    1
    50    11    12    1
    51    28    13    1
    52    13    12    1
    53    13    15    1
    54    12    26    1
    55    12    27    1
    56    31    15    1
    57    15    33    1
    58    15    32    1
