@<TRIPOS>MOLECULE
5,6,7,8,9,10
 63 64 0 0 0
SMALL
GASTEIGER

@<TRIPOS>ATOM
      1 SI         12.6378    1.8783    2.0472 Si      1  UNL1        0.0000
      2 SI         12.8493    7.2056    6.0067 Si      1  UNL1        0.0000
      3 O          12.5380    4.6171    1.5202 O.3     1  UNL1        0.0000
      4 O          12.8665    6.9169    3.1984 O.2     1  UNL1        0.0000
      5 C          12.8359    3.0717    4.8189 C.2     1  UNL1        0.0000
      6 C          12.6603    3.2098    3.4208 C.2     1  UNL1        0.0000
      7 C          12.6253    4.5101    2.8937 C.3     1  UNL1        0.0000
      8 C          12.7798    5.6371    3.7299 C.2     1  UNL1        0.0000
      9 C          12.8785    5.5091    5.1203 C.2     1  UNL1        0.0000
     10 C          12.9064    4.1944    5.6600 C.3     1  UNL1        0.0000
     11 C          13.2427    4.0002    7.1170 C.3     1  UNL1        0.0000
     12 C          12.6746    2.7182    7.7771 C.3     1  UNL1        0.0000
     13 C          12.0548    1.7477    6.7652 C.3     1  UNL1        0.0000
     14 C          12.8889    1.7292    5.4817 C.3     1  UNL1        0.0000
     15 C          11.4548    5.3815    1.0136 C.3     1  UNL1        0.0000
     16 C          13.9927    7.1292    2.3645 C.3     1  UNL1        0.0000
     17 C          14.7726    4.0636    7.2498 C.3     1  UNL1        0.0000
     18 C          11.6564    3.1078    8.8485 C.3     1  UNL1        0.0000
     19 C          11.9471    0.3340    7.3313 C.3     1  UNL1        0.0000
     20 C          12.7434    0.0518    2.6070 C.3     1  UNL1        0.0000
     21 C          11.0119    2.0033    1.0554 C.3     1  UNL1        0.0000
     22 C          14.2186    2.1459    1.0010 C.3     1  UNL1        0.0000
     23 C          12.7594    7.1993    7.9173 C.3     1  UNL1        0.0000
     24 C          14.4596    8.1607    5.5916 C.3     1  UNL1        0.0000
     25 C          11.2588    8.1004    5.4569 C.3     1  UNL1        0.0000
     26 H          11.5533    5.3505   -0.0703 H       1  UNL1        0.0000
     27 H          14.9224    6.9768    2.9217 H       1  UNL1        0.0000
     28 H          11.4858    6.4181    1.3555 H       1  UNL1        0.0000
     29 H          10.5021    4.9372    1.3172 H       1  UNL1        0.0000
     30 H          13.9307    8.1650    2.0357 H       1  UNL1        0.0000
     31 H          13.9897    6.4690    1.4936 H       1  UNL1        0.0000
     32 H          12.8366    4.8487    7.6626 H       1  UNL1        0.0000
     33 H          13.5043    2.1972    8.2691 H       1  UNL1        0.0000
     34 H          11.0494    2.1018    6.5051 H       1  UNL1        0.0000
     35 H          13.9231    1.4624    5.7253 H       1  UNL1        0.0000
     36 H          12.4924    0.9701    4.8155 H       1  UNL1        0.0000
     37 H          15.0643    3.9951    8.2954 H       1  UNL1        0.0000
     38 H          15.2468    3.2492    6.7054 H       1  UNL1        0.0000
     39 H          15.1454    5.0059    6.8513 H       1  UNL1        0.0000
     40 H          11.2728    2.2288    9.3595 H       1  UNL1        0.0000
     41 H          12.1153    3.7540    9.5940 H       1  UNL1        0.0000
     42 H          10.8181    3.6341    8.3982 H       1  UNL1        0.0000
     43 H          11.4818   -0.3266    6.6037 H       1  UNL1        0.0000
     44 H          12.9330   -0.0601    7.5728 H       1  UNL1        0.0000
     45 H          11.3412    0.3186    8.2324 H       1  UNL1        0.0000
     46 H          12.8174   -0.5617    1.7141 H       1  UNL1        0.0000
     47 H          13.6134   -0.1693    3.2161 H       1  UNL1        0.0000
     48 H          11.8563   -0.2745    3.1401 H       1  UNL1        0.0000
     49 H          10.7288    1.0291    0.6689 H       1  UNL1        0.0000
     50 H          10.1941    2.3587    1.6776 H       1  UNL1        0.0000
     51 H          11.1049    2.6747    0.2093 H       1  UNL1        0.0000
     52 H          14.2478    1.4344    0.1819 H       1  UNL1        0.0000
     53 H          14.2643    3.1422    0.5773 H       1  UNL1        0.0000
     54 H          15.1166    1.9943    1.5942 H       1  UNL1        0.0000
     55 H          12.6910    8.2328    8.2436 H       1  UNL1        0.0000
     56 H          11.8751    6.6933    8.2907 H       1  UNL1        0.0000
     57 H          13.6337    6.7737    8.3983 H       1  UNL1        0.0000
     58 H          14.6915    8.8549    6.3928 H       1  UNL1        0.0000
     59 H          15.3191    7.5064    5.4719 H       1  UNL1        0.0000
     60 H          14.3532    8.7393    4.6814 H       1  UNL1        0.0000
     61 H          11.1675    9.0648    5.9474 H       1  UNL1        0.0000
     62 H          11.2311    8.2665    4.3864 H       1  UNL1        0.0000
     63 H          10.3824    7.5118    5.7173 H       1  UNL1        0.0000
@<TRIPOS>BOND
     1    26    15    1
     2    52    22    1
     3    51    21    1
     4    53    22    1
     5    49    21    1
     6    22    54    1
     7    22     1    1
     8    15    29    1
     9    15    28    1
    10    15     3    1
    11    21    50    1
    12    21     1    1
    13    31    16    1
    14     3     7    1
    15    46    20    1
    16    30    16    1
    17     1    20    1
    18     1     6    1
    19    16    27    1
    20    16     4    1
    21    20    48    1
    22    20    47    1
    23     7     6    1
    24     7     8    1
    25     4     8    1
    26     6     5    2
    27     8     9    2
    28    62    25    1
    29    60    24    1
    30    36    14    1
    31     5    14    1
    32     5    10    1
    33     9    10    1
    34     9     2    1
    35    25    63    1
    36    25    61    1
    37    25     2    1
    38    59    24    1
    39    14    35    1
    40    14    13    1
    41    24     2    1
    42    24    58    1
    43    10    11    1
    44     2    23    1
    45    34    13    1
    46    43    19    1
    47    38    17    1
    48    13    19    1
    49    13    12    1
    50    39    17    1
    51    11    17    1
    52    11    32    1
    53    11    12    1
    54    17    37    1
    55    19    44    1
    56    19    45    1
    57    12    33    1
    58    12    18    1
    59    23    55    1
    60    23    56    1
    61    23    57    1
    62    42    18    1
    63    18    40    1
    64    18    41    1
