@<TRIPOS>MOLECULE
1,2,3,4,5,6
 12 12 0 0 0
SMALL
GASTEIGER

@<TRIPOS>ATOM
      1 C          -2.2628    2.7299    1.7909 C.3     1  UNL1        0.0049
      2 C          -1.8118    2.1174    0.5949 C.2     1  UNL1       -0.0797
      3 C          -0.6695    2.6132   -0.0434 C.2     1  UNL1       -0.0797
      4 C          -0.0267    3.7792    0.4565 C.3     1  UNL1        0.0049
      5 C          -0.5237    4.4306    1.6007 C.2     1  UNL1       -0.0797
      6 C          -1.6406    3.8988    2.2896 C.2     1  UNL1       -0.0797
      7 H          -3.1574    2.3506    2.2770 H       1  UNL1        0.0394
      8 H          -2.3567    1.2784    0.1799 H       1  UNL1        0.0575
      9 H          -0.3297    2.1723   -0.9737 H       1  UNL1        0.0575
     10 H           0.7913    4.2194   -0.1030 H       1  UNL1        0.0394
     11 H          -0.0870    5.3688    1.9207 H       1  UNL1        0.0575
     12 H          -2.0719    4.4287    3.1309 H       1  UNL1        0.0575
@<TRIPOS>BOND
     1     9     3    1
     2    10     4    1
     3     3     4    1
     4     3     2    2
     5     8     2    1
     6     4     5    1
     7     2     1    1
     8     5    11    1
     9     5     6    2
    10     1     7    1
    11     1     6    1
    12     6    12    1
