@<TRIPOS>MOLECULE
9,10,11,13,19,32
 54 54 0 0 0
SMALL
GASTEIGER

@<TRIPOS>ATOM
      1 SI          8.3826    4.7208   15.3837 Si      1  UNL1        0.0000
      2 O           7.7315    5.1272   18.4053 O.3     1  UNL1        0.0000
      3 C           6.2766    7.8441   20.0530 C.3     1  UNL1        0.0000
      4 H           5.8544    7.7279   21.0476 H       1  UNL1        0.0000
      5 H           5.7302    7.1863   19.3797 H       1  UNL1        0.0000
      6 H           6.1453    8.8657   19.7168 H       1  UNL1        0.0000
      7 C           7.7510    7.4369   20.0202 C.3     1  UNL1        0.0000
      8 H           7.7886    6.3919   20.3814 H       1  UNL1        0.0000
      9 C           8.2467    7.4807   18.5908 C.3     1  UNL1        0.0000
     10 C           8.7323    8.6756   18.0142 C.3     1  UNL1        0.0000
     11 C           8.6857    6.2323   16.4982 C.3     1  UNL1        0.0000
     12 N           8.6426    8.2625   20.8407 N.3     1  UNL1        0.0000
     13 C           9.3009    8.5856   16.7265 C.3     1  UNL1        0.0000
     14 H           9.8029    9.4448   16.3037 H       1  UNL1        0.0000
     15 C           8.1636    8.4477   22.1974 C.3     1  UNL1        0.0000
     16 H           7.2141    8.9743   22.2010 H       1  UNL1        0.0000
     17 H           8.8888    9.0503   22.7432 H       1  UNL1        0.0000
     18 H           8.0375    7.4916   22.7287 H       1  UNL1        0.0000
     19 C           8.2166    6.2971   17.8257 C.3     1  UNL1        0.0000
     20 C           8.5645    5.3330   13.5857 C.3     1  UNL1        0.0000
     21 H           9.5897    5.5864   13.3323 H       1  UNL1        0.0000
     22 H           7.9439    6.2037   13.3965 H       1  UNL1        0.0000
     23 H           8.2502    4.5548   12.8982 H       1  UNL1        0.0000
     24 C           6.6165    4.0622   15.6311 C.3     1  UNL1        0.0000
     25 H           5.8869    4.8056   15.3221 H       1  UNL1        0.0000
     26 H           6.4138    3.8211   16.6687 H       1  UNL1        0.0000
     27 H           6.4517    3.1663   15.0401 H       1  UNL1        0.0000
     28 C           8.7382    4.2940   18.9460 C.3     1  UNL1        0.0000
     29 H           9.5499    4.1336   18.2328 H       1  UNL1        0.0000
     30 H           8.2583    3.3446   19.1755 H       1  UNL1        0.0000
     31 H           9.1600    4.7170   19.8662 H       1  UNL1        0.0000
     32 C           9.2449    7.4112   15.9776 C.3     1  UNL1        0.0000
     33 H           9.7016    7.3892   14.9946 H       1  UNL1        0.0000
     34 C           9.9552    7.6422   20.8887 C.3     1  UNL1        0.0000
     35 H          10.3537    7.5294   19.8823 H       1  UNL1        0.0000
     36 H           9.9254    6.6489   21.3674 H       1  UNL1        0.0000
     37 H          10.6342    8.2720   21.4588 H       1  UNL1        0.0000
     38 C           9.6939    3.3473   15.6594 C.3     1  UNL1        0.0000
     39 H           9.8050    2.7729   14.7451 H       1  UNL1        0.0000
     40 H           9.3986    2.6525   16.4390 H       1  UNL1        0.0000
     41 H          10.6746    3.7416   15.9130 H       1  UNL1        0.0000
     42 SI          8.8325   10.4061   18.8307 Si      1  UNL1        0.0000
     43 C          10.5141   10.6611   19.7073 C.3     1  UNL1        0.0000
     44 H          10.8449   11.6829   19.5528 H       1  UNL1        0.0000
     45 H          11.2912   10.0057   19.3280 H       1  UNL1        0.0000
     46 H          10.4339   10.5046   20.7754 H       1  UNL1        0.0000
     47 C           8.8399   11.6000   17.3213 C.3     1  UNL1        0.0000
     48 H           8.6227   12.6120   17.6493 H       1  UNL1        0.0000
     49 H           8.0803   11.3300   16.5916 H       1  UNL1        0.0000
     50 H           9.7975   11.6392   16.8094 H       1  UNL1        0.0000
     51 C           7.4044   11.1048   19.8775 C.3     1  UNL1        0.0000
     52 H           7.2721   10.6075   20.8271 H       1  UNL1        0.0000
     53 H           6.4662   11.0778   19.3329 H       1  UNL1        0.0000
     54 H           7.6220   12.1481   20.0869 H       1  UNL1        0.0000
@<TRIPOS>BOND
     1    23    20    1
     2    21    20    1
     3    22    20    1
     4    20     1    1
     5    39    38    1
     6    33    32    1
     7    27    24    1
     8    25    24    1
     9     1    24    1
    10     1    38    1
    11     1    11    1
    12    24    26    1
    13    38    41    1
    14    38    40    1
    15    32    11    1
    16    32    13    1
    17    14    13    1
    18    11    19    1
    19    49    47    1
    20    13    10    1
    21    50    47    1
    22    47    48    1
    23    47    42    1
    24    19     2    1
    25    19     9    1
    26    10     9    1
    27    10    42    1
    28    29    28    1
    29     2    28    1
    30     9     7    1
    31    42    43    1
    32    42    51    1
    33    28    30    1
    34    28    31    1
    35    45    43    1
    36    53    51    1
    37     5     3    1
    38    44    43    1
    39    43    46    1
    40     6     3    1
    41    51    54    1
    42    51    52    1
    43    35    34    1
    44     7     3    1
    45     7     8    1
    46     7    12    1
    47     3     4    1
    48    12    34    1
    49    12    15    1
    50    34    36    1
    51    34    37    1
    52    15    16    1
    53    15    18    1
    54    15    17    1
