@<TRIPOS>MOLECULE
2,3,5,7,9,11
 27 28 0 0 0
SMALL
GASTEIGER

@<TRIPOS>ATOM
      1 SI          4.4220    5.0813   11.2009 Si      1  UNL1        0.0000
      2 C           5.7102    3.9916   10.3814 C.3     1  UNL1        0.0000
      3 C           5.6443    2.6272   10.0277 C.3     1  UNL1        0.0000
      4 H           5.0248    1.8809   10.4946 H       1  UNL1        0.0000
      5 C           6.6764    2.3584    9.0832 C.2     1  UNL1        0.0000
      6 H           6.9372    1.3857    8.7004 H       1  UNL1        0.0000
      7 C           7.3611    3.5539    8.8345 C.2     1  UNL1        0.0000
      8 H           8.2444    3.6712    8.2308 H       1  UNL1        0.0000
      9 C           6.7449    4.5723    9.6030 C.3     1  UNL1        0.0000
     10 H           7.0930    5.5880    9.6866 H       1  UNL1        0.0000
     11 C           3.7852    4.9609    8.6027 C.2     1  UNL1        0.0000
     12 C           3.9584    6.0568    9.6102 C.3     1  UNL1        0.0000
     13 C           2.6345    6.7033    9.6967 C.2     1  UNL1        0.0000
     14 C           1.7664    6.0063    8.9408 C.2     1  UNL1        0.0000
     15 C           2.4704    4.9432    8.2767 C.2     1  UNL1        0.0000
     16 C           5.1912    6.2158   12.5254 C.3     1  UNL1        0.0000
     17 H           5.4877    5.6445   13.3985 H       1  UNL1        0.0000
     18 H           4.4786    6.9673   12.8485 H       1  UNL1        0.0000
     19 H           6.0702    6.7309   12.1527 H       1  UNL1        0.0000
     20 C           2.9279    4.1377   11.9076 C.3     1  UNL1        0.0000
     21 H           3.1848    3.1221   12.1901 H       1  UNL1        0.0000
     22 H           2.1258    4.0951   11.1784 H       1  UNL1        0.0000
     23 H           2.5450    4.6372   12.7913 H       1  UNL1        0.0000
     24 H           4.7817    6.7343    9.3982 H       1  UNL1        0.0000
     25 H           2.4300    7.5666   10.3048 H       1  UNL1        0.0000
     26 H           0.7126    6.1991    8.8200 H       1  UNL1        0.0000
     27 H           1.9796    4.2503    7.6108 H       1  UNL1        0.0000
@<TRIPOS>BOND
     1    27    15    1
     2     8     7    1
     3    15    11    2
     4    15    14    1
     5    11    12    1
     6     6     5    1
     7    26    14    1
     8     7     5    2
     9     7     9    1
    10    14    13    2
    11     5     3    1
    12    24    12    1
    13     9    10    1
    14     9     2    1
    15    12    13    1
    16    12     1    1
    17    13    25    1
    18     3     2    1
    19     3     4    1
    20     2     1    1
    21    22    20    1
    22     1    20    1
    23     1    16    1
    24    20    21    1
    25    20    23    1
    26    19    16    1
    27    16    18    1
    28    16    17    1
