@<TRIPOS>MOLECULE
3,4,5,6,7,8
 42 43 0 0 0
SMALL
GASTEIGER

@<TRIPOS>ATOM
      1 SI         20.6693    3.5969    5.5070 Si      1  UNL1        0.0000
      2 N          20.1164    2.2438    4.4921 N.pl3   1  UNL1        0.0000
      3 C          18.7700    1.9271    4.3193 C.2     1  UNL1        0.0000
      4 C          17.8963    2.8051    3.6372 C.3     1  UNL1        0.0000
      5 C          16.6008    2.4055    3.2933 C.3     1  UNL1        0.0000
      6 C          16.1209    1.1543    3.7126 C.2     1  UNL1        0.0000
      7 C          16.9388    0.3114    4.4659 C.2     1  UNL1        0.0000
      8 C          18.2491    0.7111    4.7854 C.2     1  UNL1        0.0000
      9 C          22.5720    2.1092    4.3167 C.2     1  UNL1        0.0000
     10 C          22.4702    3.2064    5.0941 C.3     1  UNL1        0.0000
     11 C          20.9425    0.2637    2.9510 C.3     1  UNL1        0.0000
     12 C          21.3458   -1.0923    3.5446 C.3     1  UNL1        0.0000
     13 C          23.8919    1.5328    3.8767 C.3     1  UNL1        0.0000
     14 C          24.5393    0.7251    5.0039 C.3     1  UNL1        0.0000
     15 C          23.5970    4.0279    5.6315 C.3     1  UNL1        0.0000
     16 C          20.0577    5.2854    4.8801 C.3     1  UNL1        0.0000
     17 C          20.2041    3.2617    7.3170 C.3     1  UNL1        0.0000
     18 B          21.1835    1.4962    3.9311 B       1  UNL1        0.0000
     19 H          18.3036    3.7266    3.2393 H       1  UNL1        0.0000
     20 H          15.9920    3.0335    2.6541 H       1  UNL1        0.0000
     21 H          15.1408    0.8186    3.3944 H       1  UNL1        0.0000
     22 H          16.5959   -0.6775    4.7445 H       1  UNL1        0.0000
     23 H          18.9169    0.0250    5.2928 H       1  UNL1        0.0000
     24 H          19.8956    0.1995    2.6380 H       1  UNL1        0.0000
     25 H          21.5245    0.4109    2.0362 H       1  UNL1        0.0000
     26 H          22.4039   -1.1045    3.7904 H       1  UNL1        0.0000
     27 H          20.7867   -1.3002    4.4550 H       1  UNL1        0.0000
     28 H          21.1513   -1.8970    2.8368 H       1  UNL1        0.0000
     29 H          24.5757    2.3300    3.5736 H       1  UNL1        0.0000
     30 H          23.7381    0.8836    3.0135 H       1  UNL1        0.0000
     31 H          24.7525    1.3644    5.8565 H       1  UNL1        0.0000
     32 H          23.8710   -0.0668    5.3347 H       1  UNL1        0.0000
     33 H          25.4706    0.2749    4.6656 H       1  UNL1        0.0000
     34 H          23.3436    5.0857    5.5889 H       1  UNL1        0.0000
     35 H          24.5233    3.8662    5.0861 H       1  UNL1        0.0000
     36 H          23.7683    3.7758    6.6781 H       1  UNL1        0.0000
     37 H          19.0021    5.4229    5.0919 H       1  UNL1        0.0000
     38 H          20.5917    6.0811    5.3893 H       1  UNL1        0.0000
     39 H          20.2182    5.4153    3.8134 H       1  UNL1        0.0000
     40 H          19.1252    3.1888    7.4353 H       1  UNL1        0.0000
     41 H          20.6432    2.3358    7.6771 H       1  UNL1        0.0000
     42 H          20.5516    4.0641    7.9583 H       1  UNL1        0.0000
@<TRIPOS>BOND
     1    25    11    1
     2    24    11    1
     3    20     5    1
     4    28    12    1
     5    11    12    1
     6    11    18    1
     7    30    13    1
     8    19     4    1
     9     5     4    1
    10     5     6    1
    11    21     6    1
    12    12    26    1
    13    12    27    1
    14    29    13    1
    15     4     3    1
    16     6     7    2
    17    39    16    1
    18    13     9    1
    19    13    14    1
    20    18     9    2
    21    18     2    1
    22     9    10    1
    23     3     2    1
    24     3     8    2
    25     7    22    1
    26     7     8    1
    27     2     1    1
    28    33    14    1
    29     8    23    1
    30    16    37    1
    31    16    38    1
    32    16     1    1
    33    14    32    1
    34    14    31    1
    35    35    15    1
    36    10     1    1
    37    10    15    1
    38     1    17    1
    39    34    15    1
    40    15    36    1
    41    17    40    1
    42    17    41    1
    43    17    42    1
