@<TRIPOS>MOLECULE
1,2,4,6,7,9
 24 24 0 0 0
SMALL
GASTEIGER

@<TRIPOS>ATOM
      1 C           7.5464    6.2184    5.9537 C.2     1  UNL1       -0.0683
      2 C           8.5388    7.1807    5.7152 C.2     1  UNL1       -0.0765
      3 H           8.8779    7.3705    4.7025 H       1  UNL1        0.0578
      4 C           9.0385    7.9790    6.7786 C.3     1  UNL1        0.0086
      5 H           9.7514    8.7681    6.5579 H       1  UNL1        0.0397
      6 C           8.5323    7.8538    8.0852 C.2     1  UNL1       -0.0626
      7 C           7.5439    6.8577    8.3205 C.2     1  UNL1       -0.0760
      8 H           7.1184    6.7551    9.3118 H       1  UNL1        0.0578
      9 C           7.0605    6.0597    7.2836 C.3     1  UNL1        0.0081
     10 H           6.2659    5.3450    7.4712 H       1  UNL1        0.0397
     11 C           6.9565    5.3962    4.8494 C.3     1  UNL1       -0.0432
     12 H           7.3160    5.7246    3.8761 H       1  UNL1        0.0275
     13 H           5.8691    5.4646    4.8687 H       1  UNL1        0.0275
     14 H           7.2278    4.3468    4.9895 H       1  UNL1        0.0275
     15 C           8.8964    8.8724    9.1378 C.3     1  UNL1       -0.0250
     16 H           9.8790    9.2841    8.8832 H       1  UNL1        0.0340
     17 C           8.9673    8.2857   10.5468 C.3     1  UNL1       -0.0589
     18 H           7.9731    8.0863   10.9410 H       1  UNL1        0.0235
     19 H           9.4552    8.9926   11.2130 H       1  UNL1        0.0235
     20 H           9.5345    7.3571   10.5439 H       1  UNL1        0.0235
     21 C           7.8686   10.0106    9.0748 C.3     1  UNL1       -0.0589
     22 H           6.8698    9.6367    9.2933 H       1  UNL1        0.0235
     23 H           7.8576   10.4693    8.0877 H       1  UNL1        0.0235
     24 H           8.1188   10.7734    9.8078 H       1  UNL1        0.0235
@<TRIPOS>BOND
     1    12    11    1
     2     3     2    1
     3    11    13    1
     4    11    14    1
     5    11     1    1
     6     2     1    2
     7     2     4    1
     8     1     9    1
     9     5     4    1
    10     4     6    1
    11     9    10    1
    12     9     7    1
    13     6     7    2
    14     6    15    1
    15    23    21    1
    16     7     8    1
    17    16    15    1
    18    21    15    1
    19    21    22    1
    20    21    24    1
    21    15    17    1
    22    20    17    1
    23    17    18    1
    24    17    19    1
