@<TRIPOS>MOLECULE
4,5,6,7,8,9
 46 47 0 0 0
SMALL
GASTEIGER

@<TRIPOS>ATOM
      1 SI          6.3196    6.2227    0.6870 Si      1  UNL1        0.0000
      2 O           8.0586    1.2731    6.8665 O.2     1  UNL1        0.0000
      3 N           8.1137    0.8065    4.6717 N.2     1  UNL1        0.0000
      4 C           5.7963    2.6910    4.2815 C.3     1  UNL1        0.0000
      5 C           6.3324    2.2376    5.5195 C.3     1  UNL1        0.0000
      6 C           5.7109    2.6394    6.7221 C.3     1  UNL1        0.0000
      7 C           4.5435    3.4118    6.7175 C.2     1  UNL1        0.0000
      8 C           4.0264    3.8578    5.4987 C.2     1  UNL1        0.0000
      9 C           4.6342    3.4711    4.2932 C.3     1  UNL1        0.0000
     10 C           7.5216    1.4096    5.6195 C.2     1  UNL1        0.0000
     11 C           9.2904    0.1460    5.1992 C.3     1  UNL1        0.0000
     12 C           9.2200    0.4708    6.7210 C.3     1  UNL1        0.0000
     13 C          10.5344    0.7470    4.5444 C.3     1  UNL1        0.0000
     14 C           9.2079   -1.3542    4.9203 C.3     1  UNL1        0.0000
     15 C           6.3936    2.3227    2.9423 C.3     1  UNL1        0.0000
     16 C           6.4002    3.5199    2.1160 C.1     1  UNL1        0.0000
     17 C           6.3632    4.5431    1.4808 C.1     1  UNL1        0.0000
     18 C           4.8435    7.1472    1.4643 C.3     1  UNL1        0.0000
     19 C           7.9564    7.1128    1.0654 C.3     1  UNL1        0.0000
     20 C           6.0630    5.9990   -1.1916 C.3     1  UNL1        0.0000
     21 C           5.5950    1.1835    2.2922 C.3     1  UNL1        0.0000
     22 H           6.0951    2.2480    7.6566 H       1  UNL1        0.0000
     23 H           4.0368    3.6362    7.6481 H       1  UNL1        0.0000
     24 H           3.1006    4.4214    5.4752 H       1  UNL1        0.0000
     25 H           4.1930    3.7692    3.3497 H       1  UNL1        0.0000
     26 H           9.1075   -0.4267    7.3361 H       1  UNL1        0.0000
     27 H          10.0850    1.0419    7.0668 H       1  UNL1        0.0000
     28 H          11.4303    0.2858    4.9528 H       1  UNL1        0.0000
     29 H          10.5018    0.5751    3.4720 H       1  UNL1        0.0000
     30 H          10.5715    1.8202    4.7198 H       1  UNL1        0.0000
     31 H           9.1559   -1.5212    3.8480 H       1  UNL1        0.0000
     32 H          10.0860   -1.8568    5.3179 H       1  UNL1        0.0000
     33 H           8.3167   -1.7781    5.3788 H       1  UNL1        0.0000
     34 H           7.4223    1.9781    3.0889 H       1  UNL1        0.0000
     35 H           3.9095    6.6159    1.3056 H       1  UNL1        0.0000
     36 H           4.9845    7.2588    2.5351 H       1  UNL1        0.0000
     37 H           4.7295    8.1413    1.0421 H       1  UNL1        0.0000
     38 H           8.1350    7.1388    2.1361 H       1  UNL1        0.0000
     39 H           8.7988    6.6050    0.6059 H       1  UNL1        0.0000
     40 H           7.9497    8.1373    0.7041 H       1  UNL1        0.0000
     41 H           6.8734    5.4269   -1.6333 H       1  UNL1        0.0000
     42 H           5.1369    5.4740   -1.4062 H       1  UNL1        0.0000
     43 H           6.0223    6.9575   -1.7012 H       1  UNL1        0.0000
     44 H           5.6613    0.2935    2.9137 H       1  UNL1        0.0000
     45 H           4.5486    1.4602    2.1738 H       1  UNL1        0.0000
     46 H           6.0057    0.9574    1.3117 H       1  UNL1        0.0000
@<TRIPOS>BOND
     1    43    20    1
     2    41    20    1
     3    42    20    1
     4    20     1    1
     5    39    19    1
     6     1    19    1
     7     1    18    1
     8     1    17    1
     9    40    19    1
    10    37    18    1
    11    19    38    1
    12    35    18    1
    13    46    21    1
    14    18    36    1
    15    17    16    3
    16    16    15    1
    17    45    21    1
    18    21    44    1
    19    21    15    1
    20    15    34    1
    21    15     4    1
    22    25     9    1
    23    29    13    1
    24    31    14    1
    25     4     9    1
    26     4     5    1
    27     9     8    1
    28    13    30    1
    29    13    28    1
    30    13    11    1
    31     3    11    1
    32     3    10    2
    33    14    11    1
    34    14    32    1
    35    14    33    1
    36    11    12    1
    37    24     8    1
    38     8     7    2
    39     5    10    1
    40     5     6    1
    41    10     2    1
    42     7     6    1
    43     7    23    1
    44    12     2    1
    45    12    27    1
    46    12    26    1
    47     6    22    1
