@<TRIPOS>MOLECULE
1,2,3,4,5,6
 45 47 0 0 0
SMALL
GASTEIGER

@<TRIPOS>ATOM
      1 C           5.5285   10.6167    5.8489 C.3     1  UNL1        0.0000
      2 C           5.4503   10.8162    4.4454 C.2     1  UNL1        0.0000
      3 C           5.9872   11.9800    3.8886 C.2     1  UNL1        0.0000
      4 C           6.6026   12.9565    4.6964 C.2     1  UNL1        0.0000
      5 C           6.6734   12.7655    6.0726 C.2     1  UNL1        0.0000
      6 C           6.1330   11.5959    6.6433 C.3     1  UNL1        0.0000
      7 H           6.1248   11.4894    7.7224 H       1  UNL1        0.0000
      8 H           7.0789   13.5379    6.7152 H       1  UNL1        0.0000
      9 H           6.9507   13.8800    4.2506 H       1  UNL1        0.0000
     10 H           5.8567   12.1736    2.8303 H       1  UNL1        0.0000
     11 C           4.7050    9.8461    3.5711 C.3     1  UNL1        0.0000
     12 C           3.1892    9.8547    3.8762 C.3     1  UNL1        0.0000
     13 C           2.7923   11.3012    4.1333 C.2     1  UNL1        0.0000
     14 O           2.6522   12.0823    3.2135 O.2     1  UNL1        0.0000
     15 C           2.6428   11.7469    5.5218 C.2     1  UNL1        0.0000
     16 SI          2.1311   13.5754    5.6912 Si      1  UNL1        0.0000
     17 C           3.5175   14.6756    4.9843 C.3     1  UNL1        0.0000
     18 H           3.2355   15.7235    5.0191 H       1  UNL1        0.0000
     19 H           3.7211   14.4209    3.9496 H       1  UNL1        0.0000
     20 H           4.4408   14.5647    5.5470 H       1  UNL1        0.0000
     21 C           1.9305   13.9522    7.5511 C.3     1  UNL1        0.0000
     22 H           1.6241   14.9831    7.6924 H       1  UNL1        0.0000
     23 H           1.1744   13.3243    8.0118 H       1  UNL1        0.0000
     24 H           2.8580   13.8135    8.0981 H       1  UNL1        0.0000
     25 C           0.4699   13.8433    4.8022 C.3     1  UNL1        0.0000
     26 H           0.1462   14.8764    4.8850 H       1  UNL1        0.0000
     27 H          -0.3135   13.2185    5.2225 H       1  UNL1        0.0000
     28 H           0.5560   13.6049    3.7475 H       1  UNL1        0.0000
     29 C           2.8775   10.9138    6.5398 C.2     1  UNL1        0.0000
     30 C           3.3203    9.4942    6.3727 C.3     1  UNL1        0.0000
     31 C           2.8138    8.9303    5.0378 C.3     1  UNL1        0.0000
     32 C           1.3221    8.7595    5.0888 C.2     1  UNL1        0.0000
     33 C           0.7068    7.6002    4.9556 C.2     1  UNL1        0.0000
     34 H          -0.3655    7.5158    4.9945 H       1  UNL1        0.0000
     35 H           1.2509    6.6828    4.7995 H       1  UNL1        0.0000
     36 H           0.7563    9.6691    5.2417 H       1  UNL1        0.0000
     37 H           3.2675    7.9466    4.8693 H       1  UNL1        0.0000
     38 C           4.8647    9.4325    6.4963 C.3     1  UNL1        0.0000
     39 H           5.1327    9.4123    7.5550 H       1  UNL1        0.0000
     40 H           5.2204    8.5008    6.0493 H       1  UNL1        0.0000
     41 H           2.8983    8.8838    7.1791 H       1  UNL1        0.0000
     42 H           2.7919   11.2722    7.5568 H       1  UNL1        0.0000
     43 H           2.6640    9.5166    2.9761 H       1  UNL1        0.0000
     44 H           4.8518   10.1288    2.5268 H       1  UNL1        0.0000
     45 H           5.0928    8.8320    3.6999 H       1  UNL1        0.0000
@<TRIPOS>BOND
     1    44    11    1
     2    10     3    1
     3    43    12    1
     4    14    13    2
     5    11    45    1
     6    11    12    1
     7    11     2    1
     8    28    25    1
     9    12    13    1
    10    12    31    1
    11     3     2    2
    12     3     4    1
    13    19    17    1
    14    13    15    1
    15     9     4    1
    16     2     1    1
    17     4     5    2
    18    35    33    1
    19    25    26    1
    20    25    27    1
    21    25    16    1
    22    37    31    1
    23    33    34    1
    24    33    32    2
    25    17    18    1
    26    17    20    1
    27    17    16    1
    28    31    32    1
    29    31    30    1
    30    32    36    1
    31    15    16    1
    32    15    29    2
    33    16    21    1
    34     1    38    1
    35     1     6    1
    36    40    38    1
    37     5     6    1
    38     5     8    1
    39    30    38    1
    40    30    29    1
    41    30    41    1
    42    38    39    1
    43    29    42    1
    44     6     7    1
    45    21    22    1
    46    21    23    1
    47    21    24    1
