@<TRIPOS>MOLECULE
5,6,7,8,9,10
 44 45 0 0 0
SMALL
GASTEIGER

@<TRIPOS>ATOM
      1 SI         -0.2392    5.3953    2.1456 Si      1  UNL1        0.0000
      2 SI          1.1825    8.7502    4.3747 Si      1  UNL1        0.0000
      3 O           0.5335    6.0386    3.4695 O.3     1  UNL1        0.0000
      4 O           1.7853    7.5963    5.3867 O.3     1  UNL1        0.0000
      5 C           2.5911    4.2874    6.6378 C.ar    1  UNL1        0.0000
      6 C           3.3404    3.6649    7.6838 C.2     1  UNL1        0.0000
      7 C           3.2823    2.2919    7.8771 C.2     1  UNL1        0.0000
      8 C           2.5720    1.4751    6.9660 C.3     1  UNL1        0.0000
      9 C           1.9331    2.0422    5.8723 C.3     1  UNL1        0.0000
     10 C           1.8887    3.4615    5.7104 C.ar    1  UNL1        0.0000
     11 C           1.1785    4.0738    4.6619 C.ar    1  UNL1        0.0000
     12 C           1.1561    5.4374    4.4972 C.ar    1  UNL1        0.0000
     13 C           1.8157    6.2651    5.4504 C.ar    1  UNL1        0.0000
     14 C           2.5096    5.6822    6.4886 C.ar    1  UNL1        0.0000
     15 C          -0.5259    6.8908    1.0158 C.3     1  UNL1        0.0000
     16 C          -1.9091    4.6522    2.7016 C.3     1  UNL1        0.0000
     17 C           0.8481    4.0839    1.2837 C.3     1  UNL1        0.0000
     18 C          -0.7258    8.7596    4.3373 C.3     1  UNL1        0.0000
     19 C           2.0316    8.7137    2.6704 C.3     1  UNL1        0.0000
     20 C           1.7547   10.3051    5.3116 C.3     1  UNL1        0.0000
     21 H           3.8347    4.2986    8.4110 H       1  UNL1        0.0000
     22 H           3.7427    1.8428    8.7493 H       1  UNL1        0.0000
     23 H           2.4930    0.4105    7.1531 H       1  UNL1        0.0000
     24 H           1.3432    1.4261    5.2034 H       1  UNL1        0.0000
     25 H           0.6506    3.4516    3.9567 H       1  UNL1        0.0000
     26 H           3.0058    6.3292    7.1967 H       1  UNL1        0.0000
     27 H           0.3635    7.1426    0.4479 H       1  UNL1        0.0000
     28 H          -1.3107    6.6638    0.3018 H       1  UNL1        0.0000
     29 H          -0.8230    7.7744    1.5687 H       1  UNL1        0.0000
     30 H          -2.5530    5.4155    3.1306 H       1  UNL1        0.0000
     31 H          -2.4411    4.2151    1.8627 H       1  UNL1        0.0000
     32 H          -1.7888    3.8753    3.4521 H       1  UNL1        0.0000
     33 H           0.8102    4.1950    0.2044 H       1  UNL1        0.0000
     34 H           1.8896    4.1722    1.5836 H       1  UNL1        0.0000
     35 H           0.5329    3.0681    1.5062 H       1  UNL1        0.0000
     36 H          -1.0993    9.5463    3.6892 H       1  UNL1        0.0000
     37 H          -1.1400    7.8183    3.9935 H       1  UNL1        0.0000
     38 H          -1.1202    8.9487    5.3327 H       1  UNL1        0.0000
     39 H           3.0796    8.9846    2.7687 H       1  UNL1        0.0000
     40 H           1.9884    7.7316    2.2136 H       1  UNL1        0.0000
     41 H           1.5771    9.4210    1.9845 H       1  UNL1        0.0000
     42 H           2.8348   10.3376    5.4103 H       1  UNL1        0.0000
     43 H           1.4469   11.2015    4.7846 H       1  UNL1        0.0000
     44 H           1.3348   10.3525    6.3113 H       1  UNL1        0.0000
@<TRIPOS>BOND
     1    33    17    1
     2    28    15    1
     3    27    15    1
     4    15    29    1
     5    15     1    1
     6    17    35    1
     7    17    34    1
     8    17     1    1
     9    31    16    1
    10    41    19    1
    11     1    16    1
    12     1     3    1
    13    40    19    1
    14    19    39    1
    15    19     2    1
    16    16    30    1
    17    16    32    1
    18     3    12    1
    19    36    18    1
    20    25    11    1
    21    37    18    1
    22    18     2    1
    23    18    38    1
    24     2    20    1
    25     2     4    1
    26    12    11   ar
    27    12    13   ar
    28    11    10   ar
    29    43    20    1
    30    24     9    1
    31    20    42    1
    32    20    44    1
    33     4    13    1
    34    13    14   ar
    35    10     9    1
    36    10     5   ar
    37     9     8    1
    38    14     5   ar
    39    14    26    1
    40     5     6    1
    41     8    23    1
    42     8     7    1
    43     6     7    2
    44     6    21    1
    45     7    22    1
