@<TRIPOS>MOLECULE
6,7,8,9,10,11
 59 60 0 0 0
SMALL
GASTEIGER

@<TRIPOS>ATOM
      1 SI          3.8634    1.4406   -1.7336 Si      1  UNL1        0.0000
      2 O          -0.3673    3.0177   -2.2009 O.3     1  UNL1        0.0000
      3 O           1.0770    2.8645   -3.9049 O.3     1  UNL1        0.0000
      4 O          -0.6046    0.1963   -2.9329 O.3     1  UNL1        0.0000
      5 O          -1.8519    3.0128   -5.9857 O.3     1  UNL1        0.0000
      6 C           1.9005    3.6124   -1.7640 C.3     1  UNL1        0.0000
      7 C           3.1891    3.1851   -1.3810 C.3     1  UNL1        0.0000
      8 C           3.9752    4.1137   -0.6719 C.3     1  UNL1        0.0000
      9 C           3.5413    5.4162   -0.4011 C.3     1  UNL1        0.0000
     10 C           2.2717    5.8231   -0.8357 C.2     1  UNL1        0.0000
     11 C           1.4697    4.9351   -1.5502 C.2     1  UNL1        0.0000
     12 C           0.9626    2.7017   -2.5054 C.3     1  UNL1        0.0000
     13 C          -1.1456    2.4861   -3.2549 C.3     1  UNL1        0.0000
     14 C          -0.1687    2.4805   -4.4577 C.3     1  UNL1        0.0000
     15 C          -1.7219    1.0885   -2.9109 C.3     1  UNL1        0.0000
     16 C          -0.5471    3.4421   -5.6084 C.3     1  UNL1        0.0000
     17 C          -2.3868    1.1680   -1.5339 C.3     1  UNL1        0.0000
     18 C          -2.7572    0.7005   -3.9738 C.3     1  UNL1        0.0000
     19 C          -0.7774   -1.0706   -2.3424 C.3     1  UNL1        0.0000
     20 C          -0.5197    4.8966   -5.1267 C.3     1  UNL1        0.0000
     21 C           0.4767    3.2480   -6.7341 C.3     1  UNL1        0.0000
     22 C          -2.4643    3.6916   -7.0571 C.3     1  UNL1        0.0000
     23 C           5.6626    1.3670   -1.0930 C.3     1  UNL1        0.0000
     24 C           3.8769    1.1348   -3.6168 C.3     1  UNL1        0.0000
     25 C           2.8531    0.1477   -0.7582 C.3     1  UNL1        0.0000
     26 H           4.9836    3.8369   -0.3891 H       1  UNL1        0.0000
     27 H           4.2016    6.1208    0.0902 H       1  UNL1        0.0000
     28 H           1.9521    6.8492   -0.6917 H       1  UNL1        0.0000
     29 H           0.5127    5.2470   -1.9471 H       1  UNL1        0.0000
     30 H           1.1621    1.6464   -2.2539 H       1  UNL1        0.0000
     31 H          -1.9855    3.1644   -3.4194 H       1  UNL1        0.0000
     32 H          -0.0921    1.4632   -4.8594 H       1  UNL1        0.0000
     33 H          -1.6440    1.3588   -0.7641 H       1  UNL1        0.0000
     34 H          -3.0998    1.9873   -1.5285 H       1  UNL1        0.0000
     35 H          -2.9169    0.2464   -1.3072 H       1  UNL1        0.0000
     36 H          -3.6071    1.3736   -3.9200 H       1  UNL1        0.0000
     37 H          -2.3264    0.7714   -4.9680 H       1  UNL1        0.0000
     38 H          -3.1091   -0.3146   -3.8079 H       1  UNL1        0.0000
     39 H          -0.8346   -1.0059   -1.2514 H       1  UNL1        0.0000
     40 H          -1.6644   -1.5866   -2.7213 H       1  UNL1        0.0000
     41 H           0.1064   -1.6444   -2.6205 H       1  UNL1        0.0000
     42 H           0.4362    5.0813   -4.6450 H       1  UNL1        0.0000
     43 H          -0.6249    5.5832   -5.9631 H       1  UNL1        0.0000
     44 H          -1.3208    5.0815   -4.4151 H       1  UNL1        0.0000
     45 H           0.3569    2.2619   -7.1771 H       1  UNL1        0.0000
     46 H           0.3615    4.0030   -7.5080 H       1  UNL1        0.0000
     47 H           1.4743    3.3264   -6.3126 H       1  UNL1        0.0000
     48 H          -2.6229    4.7516   -6.8362 H       1  UNL1        0.0000
     49 H          -1.8919    3.5981   -7.9848 H       1  UNL1        0.0000
     50 H          -3.4316    3.2093   -7.1881 H       1  UNL1        0.0000
     51 H           5.7098    1.4924   -0.0156 H       1  UNL1        0.0000
     52 H           6.0938    0.3981   -1.3224 H       1  UNL1        0.0000
     53 H           6.3018    2.1167   -1.5501 H       1  UNL1        0.0000
     54 H           4.0405    0.0833   -3.8308 H       1  UNL1        0.0000
     55 H           2.9381    1.4280   -4.0747 H       1  UNL1        0.0000
     56 H           4.6689    1.6946   -4.1068 H       1  UNL1        0.0000
     57 H           2.5373    0.5424    0.2055 H       1  UNL1        0.0000
     58 H           1.9614   -0.1615   -1.2937 H       1  UNL1        0.0000
     59 H           3.4449   -0.7442   -0.5740 H       1  UNL1        0.0000
@<TRIPOS>BOND
     1    49    22    1
     2    46    21    1
     3    50    22    1
     4    45    21    1
     5    22    48    1
     6    22     5    1
     7    21    47    1
     8    21    16    1
     9     5    16    1
    10    43    20    1
    11    16    20    1
    12    16    14    1
    13    20    42    1
    14    20    44    1
    15    37    18    1
    16    32    14    1
    17    14     3    1
    18    14    13    1
    19    56    24    1
    20    55    24    1
    21    18    36    1
    22    18    38    1
    23    18    15    1
    24     3    12    1
    25    54    24    1
    26    24     1    1
    27    31    13    1
    28    13    15    1
    29    13     2    1
    30     4    15    1
    31     4    19    1
    32    15    17    1
    33    40    19    1
    34    41    19    1
    35    12    30    1
    36    12     2    1
    37    12     6    1
    38    19    39    1
    39    29    11    1
    40     6    11    1
    41     6     7    1
    42     1     7    1
    43     1    23    1
    44     1    25    1
    45    11    10    2
    46    53    23    1
    47    17    34    1
    48    17    35    1
    49    17    33    1
    50     7     8    1
    51    52    23    1
    52    58    25    1
    53    23    51    1
    54    10    28    1
    55    10     9    1
    56    25    59    1
    57    25    57    1
    58     8     9    1
    59     8    26    1
    60     9    27    1
