@<TRIPOS>MOLECULE
52,53,55,57,59,61
 62 64 0 0 0
SMALL
GASTEIGER

@<TRIPOS>ATOM
      1 C          -1.2822   10.2920    7.7739 C.ar    1  UNL1        0.0000
      2 O          -1.5631   11.1884    6.7385 O.3     1  UNL1        0.0000
      3 C          -2.3136   10.5902    5.6999 C.3     1  UNL1        0.0000
      4 H          -1.7578    9.7756    5.2220 H       1  UNL1        0.0000
      5 H          -2.5104   11.3742    4.9696 H       1  UNL1        0.0000
      6 H          -3.2623   10.1920    6.0742 H       1  UNL1        0.0000
      7 C          -2.1590   10.2767    8.8464 C.ar    1  UNL1        0.0000
      8 C          -3.2087   11.3536    8.9328 C.3     1  UNL1        0.0000
      9 H          -4.1232   10.9755    9.3880 H       1  UNL1        0.0000
     10 H          -3.4537   11.7143    7.9342 H       1  UNL1        0.0000
     11 C          -2.6641   12.5317    9.7460 C.3     1  UNL1        0.0000
     12 H          -3.3929   13.3388    9.7767 H       1  UNL1        0.0000
     13 H          -1.7473   12.9026    9.2937 H       1  UNL1        0.0000
     14 H          -2.4367   12.2290   10.7656 H       1  UNL1        0.0000
     15 C          -2.0089    9.3313    9.8767 C.ar    1  UNL1        0.0000
     16 C          -2.9983    9.2182   11.0044 C.3     1  UNL1        0.0000
     17 H          -3.3948   10.1940   11.2796 H       1  UNL1        0.0000
     18 H          -2.4988    8.7979   11.8752 H       1  UNL1        0.0000
     19 C          -4.1451    8.2843   10.6082 C.3     1  UNL1        0.0000
     20 H          -4.8495    8.1788   11.4303 H       1  UNL1        0.0000
     21 H          -3.7529    7.3015   10.3577 H       1  UNL1        0.0000
     22 H          -4.6784    8.6669    9.7404 H       1  UNL1        0.0000
     23 C          -0.9784    8.4127    9.7887 C.ar    1  UNL1        0.0000
     24 O          -0.8331    7.4649   10.7549 O.3     1  UNL1        0.0000
     25 SI          0.0688    7.3558   12.1226 Si      1  UNL1        0.0000
     26 C          -0.2045    8.8475   13.2871 C.3     1  UNL1        0.0000
     27 H          -1.1458    8.7917   13.8257 H       1  UNL1        0.0000
     28 H          -0.2023    9.7816   12.7320 H       1  UNL1        0.0000
     29 H           0.5847    8.9113   14.0286 H       1  UNL1        0.0000
     30 C           1.9494    7.2752   11.8063 C.3     1  UNL1        0.0000
     31 H           2.2496    6.3520   11.3202 H       1  UNL1        0.0000
     32 H           2.4987    7.3366   12.7402 H       1  UNL1        0.0000
     33 H           2.2841    8.0963   11.1790 H       1  UNL1        0.0000
     34 C          -0.5910    5.7112   12.8695 C.3     1  UNL1        0.0000
     35 C          -0.3858    4.5549   11.8872 C.3     1  UNL1        0.0000
     36 H          -0.9016    4.7539   10.9510 H       1  UNL1        0.0000
     37 H          -0.7782    3.6278   12.3043 H       1  UNL1        0.0000
     38 H           0.6707    4.4084   11.6751 H       1  UNL1        0.0000
     39 C          -2.0845    5.8093   13.1912 C.3     1  UNL1        0.0000
     40 H          -2.6540    6.0394   12.2948 H       1  UNL1        0.0000
     41 H          -2.2739    6.5847   13.9300 H       1  UNL1        0.0000
     42 H          -2.4479    4.8642   13.5939 H       1  UNL1        0.0000
     43 C           0.1672    5.3996   14.1599 C.3     1  UNL1        0.0000
     44 H           0.0341    6.1963   14.8878 H       1  UNL1        0.0000
     45 H           1.2311    5.2899   13.9662 H       1  UNL1        0.0000
     46 H          -0.1957    4.4716   14.6005 H       1  UNL1        0.0000
     47 C          -0.0658    8.4294    8.7109 C.ar    1  UNL1        0.0000
     48 C           0.9335    7.4269    8.6253 C.ar    1  UNL1        0.0000
     49 H           0.9111    6.6292    9.3474 H       1  UNL1        0.0000
     50 C           1.8703    7.4509    7.6468 C.ar    1  UNL1        0.0000
     51 H           2.6178    6.6732    7.5769 H       1  UNL1        0.0000
     52 C           1.9005    8.5046    6.6968 C.ar    1  UNL1        0.0000
     53 C           2.9564    8.5712    5.7443 C.3     1  UNL1        0.0000
     54 H           3.6912    7.7745    5.7368 H       1  UNL1        0.0000
     55 C           2.9431    9.5200    4.7152 C.3     1  UNL1        0.0000
     56 H           3.6632    9.4658    3.9083 H       1  UNL1        0.0000
     57 C           1.9072   10.4732    4.6817 C.2     1  UNL1        0.0000
     58 H           1.8526   11.1785    3.8599 H       1  UNL1        0.0000
     59 C           0.9566   10.5158    5.6938 C.2     1  UNL1        0.0000
     60 H           0.1731   11.2515    5.6241 H       1  UNL1        0.0000
     61 C           0.8758    9.4979    6.7047 C.ar    1  UNL1        0.0000
     62 C          -0.1663    9.4230    7.6980 C.ar    1  UNL1        0.0000
@<TRIPOS>BOND
     1    58    57    1
     2    56    55    1
     3    57    55    1
     4    57    59    2
     5    55    53    1
     6     5     3    1
     7     4     3    1
     8    60    59    1
     9    59    61    1
    10     3     6    1
    11     3     2    1
    12    54    53    1
    13    53    52    1
    14    52    61   ar
    15    52    50   ar
    16    61    62   ar
    17     2     1    1
    18    51    50    1
    19    50    48   ar
    20    62     1   ar
    21    62    47   ar
    22     1     7   ar
    23    10     8    1
    24    48    47   ar
    25    48    49    1
    26    47    23   ar
    27     7     8    1
    28     7    15   ar
    29     8     9    1
    30     8    11    1
    31    13    11    1
    32    22    19    1
    33    11    12    1
    34    11    14    1
    35    23    15   ar
    36    23    24    1
    37    15    16    1
    38    21    19    1
    39    19    16    1
    40    19    20    1
    41    24    25    1
    42    36    35    1
    43    16    17    1
    44    16    18    1
    45    33    30    1
    46    31    30    1
    47    38    35    1
    48    30    25    1
    49    30    32    1
    50    35    37    1
    51    35    34    1
    52    25    34    1
    53    25    26    1
    54    40    39    1
    55    28    26    1
    56    34    39    1
    57    34    43    1
    58    39    42    1
    59    39    41    1
    60    26    27    1
    61    26    29    1
    62    45    43    1
    63    43    46    1
    64    43    44    1
