@<TRIPOS>MOLECULE
1,7,15,23,47,62
 62 64 0 0 0
SMALL
GASTEIGER

@<TRIPOS>ATOM
      1 C           8.2879    9.6592    3.1239 C.3     1  UNL1        0.0000
      2 O           8.9790    9.9921    1.9638 O.3     1  UNL1        0.0000
      3 C           8.5030   11.1620    1.3261 C.3     1  UNL1        0.0000
      4 H           9.1743   11.3428    0.4888 H       1  UNL1        0.0000
      5 H           8.5260   12.0220    2.0042 H       1  UNL1        0.0000
      6 H           7.4817   11.0351    0.9518 H       1  UNL1        0.0000
      7 C           8.9356    9.9142    4.3585 C.3     1  UNL1        0.0000
      8 C          10.3382   10.4696    4.3293 C.3     1  UNL1        0.0000
      9 H          10.7889   10.2049    3.3715 H       1  UNL1        0.0000
     10 H          10.9349    9.9944    5.1100 H       1  UNL1        0.0000
     11 C          10.3837   11.9921    4.4973 C.3     1  UNL1        0.0000
     12 H          11.4167   12.3299    4.5370 H       1  UNL1        0.0000
     13 H           9.8818   12.3089    5.4093 H       1  UNL1        0.0000
     14 H           9.8999   12.4874    3.6588 H       1  UNL1        0.0000
     15 C           8.2304    9.7476    5.5855 C.2     1  UNL1        0.0000
     16 C           8.8611   10.0404    6.9223 C.3     1  UNL1        0.0000
     17 H           8.1704   10.6567    7.5001 H       1  UNL1        0.0000
     18 H           9.7871   10.5980    6.7996 H       1  UNL1        0.0000
     19 C           9.1542    8.7610    7.7066 C.3     1  UNL1        0.0000
     20 H           9.5990    9.0077    8.6688 H       1  UNL1        0.0000
     21 H           9.8423    8.1288    7.1487 H       1  UNL1        0.0000
     22 H           8.2349    8.2092    7.8736 H       1  UNL1        0.0000
     23 C           6.9227    9.2778    5.5471 C.2     1  UNL1        0.0000
     24 O           6.2213    9.1034    6.7087 O.2     1  UNL1        0.0000
     25 SI          5.1577    9.9637    7.6089 Si      1  UNL1        0.0000
     26 C           6.0241   11.1590    8.8253 C.3     1  UNL1        0.0000
     27 H           6.8131   10.6720    9.3905 H       1  UNL1        0.0000
     28 H           5.3070   11.5466    9.5423 H       1  UNL1        0.0000
     29 H           6.4561   12.0180    8.3179 H       1  UNL1        0.0000
     30 C           4.0011   11.0588    6.5479 C.3     1  UNL1        0.0000
     31 H           3.1486   10.5156    6.1516 H       1  UNL1        0.0000
     32 H           4.5367   11.4760    5.6986 H       1  UNL1        0.0000
     33 H           3.6116   11.8902    7.1268 H       1  UNL1        0.0000
     34 C           4.2198    8.6099    8.6040 C.3     1  UNL1        0.0000
     35 C           3.6465    7.5244    7.6900 C.3     1  UNL1        0.0000
     36 H           4.4368    7.0535    7.1114 H       1  UNL1        0.0000
     37 H           2.9079    7.9401    7.0058 H       1  UNL1        0.0000
     38 H           3.1560    6.7526    8.2838 H       1  UNL1        0.0000
     39 C           5.1692    7.9425    9.6021 C.3     1  UNL1        0.0000
     40 H           6.0174    7.5052    9.0845 H       1  UNL1        0.0000
     41 H           4.6570    7.1467   10.1429 H       1  UNL1        0.0000
     42 H           5.5377    8.6630   10.3284 H       1  UNL1        0.0000
     43 C           3.0679    9.2509    9.3804 C.3     1  UNL1        0.0000
     44 H           3.4373   10.0065   10.0693 H       1  UNL1        0.0000
     45 H           2.5361    8.4969    9.9600 H       1  UNL1        0.0000
     46 H           2.3581    9.7247    8.7064 H       1  UNL1        0.0000
     47 C           6.2432    9.0310    4.3019 C.ar    1  UNL1        0.0000
     48 C           4.8590    8.7291    4.2879 C.ar    1  UNL1        0.0000
     49 H           4.3478    8.6483    5.2316 H       1  UNL1        0.0000
     50 C           4.1802    8.5749    3.1226 C.ar    1  UNL1        0.0000
     51 H           3.1144    8.4032    3.1239 H       1  UNL1        0.0000
     52 C           4.8683    8.5562    1.8825 C.ar    1  UNL1        0.0000
     53 C           4.1869    8.2569    0.6918 C.ar    1  UNL1        0.0000
     54 H           3.1157    8.1215    0.7336 H       1  UNL1        0.0000
     55 C           4.8641    8.1054   -0.4897 C.ar    1  UNL1        0.0000
     56 H           4.3316    7.8721   -1.4001 H       1  UNL1        0.0000
     57 C           6.2549    8.2166   -0.5031 C.ar    1  UNL1        0.0000
     58 H           6.7984    8.0373   -1.4188 H       1  UNL1        0.0000
     59 C           6.9413    8.5451    0.6409 C.ar    1  UNL1        0.0000
     60 H           8.0177    8.5898    0.6155 H       1  UNL1        0.0000
     61 C           6.2686    8.7745    1.8529 C.ar    1  UNL1        0.0000
     62 C           6.9492    9.1623    3.0725 C.ar    1  UNL1        0.0000
@<TRIPOS>BOND
     1    58    57    1
     2    56    55    1
     3    57    55   ar
     4    57    59   ar
     5    55    53   ar
     6     4     3    1
     7    60    59    1
     8    59    61   ar
     9    53    54    1
    10    53    52   ar
    11     6     3    1
    12     3     2    1
    13     3     5    1
    14    61    52   ar
    15    61    62   ar
    16    52    50   ar
    17     2     1    1
    18    62     1    1
    19    62    47   ar
    20    50    51    1
    21    50    48   ar
    22     1     7    1
    23     9     8    1
    24    14    11    1
    25    48    47   ar
    26    48    49    1
    27    47    23    1
    28     8     7    1
    29     8    11    1
    30     8    10    1
    31     7    15    1
    32    11    12    1
    33    11    13    1
    34    23    15    2
    35    23    24    1
    36    15    16    1
    37    32    30    1
    38    31    30    1
    39    30    33    1
    40    30    25    1
    41    24    25    1
    42    18    16    1
    43    16    17    1
    44    16    19    1
    45    37    35    1
    46    36    35    1
    47    21    19    1
    48    25    34    1
    49    25    26    1
    50    35    38    1
    51    35    34    1
    52    19    22    1
    53    19    20    1
    54    29    26    1
    55    34    43    1
    56    34    39    1
    57    46    43    1
    58    26    27    1
    59    26    28    1
    60    40    39    1
    61    43    45    1
    62    43    44    1
    63    39    41    1
    64    39    42    1
