@<TRIPOS>MOLECULE
1,25,33,41,47,62
 62 64 0 0 0
SMALL
GASTEIGER

@<TRIPOS>ATOM
      1 C           5.0065    1.3505    7.0712 C.3     1  UNL1        0.0000
      2 O           6.3028    1.7309    7.1569 O.3     1  UNL1        0.0000
      3 SI          7.1084    3.0715    7.6659 Si      1  UNL1        0.0000
      4 C           6.7031    4.6269    6.6353 C.3     1  UNL1        0.0000
      5 H           7.0951    4.5812    5.6230 H       1  UNL1        0.0000
      6 H           7.1225    5.5120    7.1026 H       1  UNL1        0.0000
      7 H           5.6306    4.7798    6.5681 H       1  UNL1        0.0000
      8 C           6.7891    3.4634    9.5022 C.3     1  UNL1        0.0000
      9 H           7.2847    2.7710   10.1765 H       1  UNL1        0.0000
     10 H           5.7259    3.4335    9.7213 H       1  UNL1        0.0000
     11 H           7.1388    4.4598    9.7513 H       1  UNL1        0.0000
     12 C           8.9275    2.5179    7.3561 C.3     1  UNL1        0.0000
     13 C           9.1319    2.0902    5.9008 C.3     1  UNL1        0.0000
     14 H           8.9281    2.9145    5.2213 H       1  UNL1        0.0000
     15 H           8.4712    1.2640    5.6499 H       1  UNL1        0.0000
     16 H          10.1603    1.7668    5.7393 H       1  UNL1        0.0000
     17 C           9.3154    1.3453    8.2593 C.3     1  UNL1        0.0000
     18 H           9.2464    1.6238    9.3077 H       1  UNL1        0.0000
     19 H          10.3410    1.0346    8.0594 H       1  UNL1        0.0000
     20 H           8.6621    0.4951    8.0846 H       1  UNL1        0.0000
     21 C           9.8608    3.6892    7.6585 C.3     1  UNL1        0.0000
     22 H           9.7463    4.0145    8.6892 H       1  UNL1        0.0000
     23 H           9.6438    4.5338    7.0100 H       1  UNL1        0.0000
     24 H          10.9003    3.4002    7.5052 H       1  UNL1        0.0000
     25 C           4.4557    0.5144    8.0751 C.3     1  UNL1        0.0000
     26 C           5.3480    0.0668    9.2030 C.3     1  UNL1        0.0000
     27 H           4.7604   -0.1448   10.0969 H       1  UNL1        0.0000
     28 H           6.0362    0.8756    9.4444 H       1  UNL1        0.0000
     29 C           6.1632   -1.1646    8.7961 C.3     1  UNL1        0.0000
     30 H           6.8341   -1.4581    9.6002 H       1  UNL1        0.0000
     31 H           6.7578   -0.9386    7.9137 H       1  UNL1        0.0000
     32 H           5.5162   -2.0077    8.5607 H       1  UNL1        0.0000
     33 C           3.2047   -0.1189    7.8162 C.2     1  UNL1        0.0000
     34 C           2.6118   -1.1308    8.7651 C.3     1  UNL1        0.0000
     35 H           2.0911   -1.9016    8.1925 H       1  UNL1        0.0000
     36 H           3.3884   -1.6181    9.3530 H       1  UNL1        0.0000
     37 C           1.6004   -0.4631    9.6997 C.3     1  UNL1        0.0000
     38 H           1.1490   -1.2046   10.3554 H       1  UNL1        0.0000
     39 H           0.8182    0.0149    9.1142 H       1  UNL1        0.0000
     40 H           2.0887    0.2947   10.3079 H       1  UNL1        0.0000
     41 C           2.4468    0.2524    6.7097 C.2     1  UNL1        0.0000
     42 O           1.2704   -0.4601    6.4838 O.2     1  UNL1        0.0000
     43 C           1.4102   -1.4687    5.5021 C.3     1  UNL1        0.0000
     44 H           1.6558   -1.0496    4.5201 H       1  UNL1        0.0000
     45 H           0.4482   -1.9752    5.4476 H       1  UNL1        0.0000
     46 H           2.1876   -2.1901    5.7816 H       1  UNL1        0.0000
     47 C           2.9198    1.2215    5.7518 C.ar    1  UNL1        0.0000
     48 C           2.1633    1.6717    4.6086 C.ar    1  UNL1        0.0000
     49 C           0.7828    1.4395    4.4541 C.ar    1  UNL1        0.0000
     50 H           0.2429    0.9177    5.2252 H       1  UNL1        0.0000
     51 C           0.0974    1.9009    3.3581 C.ar    1  UNL1        0.0000
     52 H          -0.9632    1.7125    3.2735 H       1  UNL1        0.0000
     53 C           0.7520    2.6166    2.3553 C.ar    1  UNL1        0.0000
     54 H           0.2038    2.9685    1.4938 H       1  UNL1        0.0000
     55 C           2.0914    2.8794    2.4848 C.ar    1  UNL1        0.0000
     56 H           2.6141    3.4494    1.7295 H       1  UNL1        0.0000
     57 C           2.8138    2.4321    3.6010 C.ar    1  UNL1        0.0000
     58 C           4.1972    2.7375    3.7274 C.ar    1  UNL1        0.0000
     59 H           4.6816    3.2644    2.9183 H       1  UNL1        0.0000
     60 C           4.8899    2.3872    4.8346 C.ar    1  UNL1        0.0000
     61 H           5.9396    2.6115    4.9297 H       1  UNL1        0.0000
     62 C           4.2692    1.6650    5.8944 C.ar    1  UNL1        0.0000
@<TRIPOS>BOND
     1    54    53    1
     2    56    55    1
     3    53    55   ar
     4    53    51   ar
     5    55    57   ar
     6    59    58    1
     7    52    51    1
     8    51    49   ar
     9    57    58   ar
    10    57    48   ar
    11    58    60   ar
    12    49    48   ar
    13    49    50    1
    14    44    43    1
    15    48    47   ar
    16    60    61    1
    17    60    62   ar
    18    14    13    1
    19    45    43    1
    20    43    46    1
    21    43    42    1
    22     5     4    1
    23    15    13    1
    24    16    13    1
    25    47    62   ar
    26    47    41    1
    27    62     1    1
    28    13    12    1
    29    42    41    1
    30     7     4    1
    31     4     6    1
    32     4     3    1
    33    41    33    2
    34    23    21    1
    35     1     2    1
    36     1    25    1
    37     2     3    1
    38    12    21    1
    39    12     3    1
    40    12    17    1
    41    24    21    1
    42    21    22    1
    43     3     8    1
    44    33    25    1
    45    33    34    1
    46    31    29    1
    47    19    17    1
    48    25    26    1
    49    20    17    1
    50    35    34    1
    51    17    18    1
    52    32    29    1
    53    34    36    1
    54    34    37    1
    55    29    26    1
    56    29    30    1
    57    39    37    1
    58    26    28    1
    59    26    27    1
    60     8    10    1
    61     8    11    1
    62     8     9    1
    63    37    40    1
    64    37    38    1
