@<TRIPOS>MOLECULE
1,7,15,23,47,62
 62 64 0 0 0
SMALL
GASTEIGER

@<TRIPOS>ATOM
      1 C           4.7057    4.9784    1.8284 C.3     1  UNL1        0.0000
      2 O           5.0211    5.5970    0.6222 O.3     1  UNL1        0.0000
      3 C           4.0656    5.3693   -0.3961 C.3     1  UNL1        0.0000
      4 H           3.9075    4.2979   -0.5613 H       1  UNL1        0.0000
      5 H           4.4729    5.8197   -1.2993 H       1  UNL1        0.0000
      6 H           3.1018    5.8345   -0.1608 H       1  UNL1        0.0000
      7 C           5.4253    3.8008    2.1547 C.3     1  UNL1        0.0000
      8 C           6.5551    3.3811    1.2451 C.3     1  UNL1        0.0000
      9 H           7.3902    3.0180    1.8475 H       1  UNL1        0.0000
     10 H           6.9039    4.2646    0.7075 H       1  UNL1        0.0000
     11 C           6.1485    2.3100    0.2272 C.3     1  UNL1        0.0000
     12 H           7.0176    1.9975   -0.3471 H       1  UNL1        0.0000
     13 H           5.4089    2.6990   -0.4685 H       1  UNL1        0.0000
     14 H           5.7245    1.4338    0.7139 H       1  UNL1        0.0000
     15 C           5.0039    2.9854    3.2426 C.2     1  UNL1        0.0000
     16 C           5.6722    1.6755    3.5752 C.3     1  UNL1        0.0000
     17 H           6.4144    1.4212    2.8220 H       1  UNL1        0.0000
     18 H           4.9139    0.8887    3.5841 H       1  UNL1        0.0000
     19 C           6.3497    1.7052    4.9442 C.3     1  UNL1        0.0000
     20 H           6.8726    0.7675    5.1203 H       1  UNL1        0.0000
     21 H           5.6059    1.8401    5.7231 H       1  UNL1        0.0000
     22 H           7.0670    2.5226    4.9908 H       1  UNL1        0.0000
     23 C           3.9034    3.3892    3.9933 C.2     1  UNL1        0.0000
     24 O           3.3715    2.5463    4.9348 O.2     1  UNL1        0.0000
     25 SI          2.2230    1.3731    4.8915 Si      1  UNL1        0.0000
     26 C           0.8331    1.8667    6.0975 C.3     1  UNL1        0.0000
     27 H           0.1557    2.6132    5.6941 H       1  UNL1        0.0000
     28 H           1.2534    2.2644    7.0155 H       1  UNL1        0.0000
     29 H           0.2391    0.9981    6.3610 H       1  UNL1        0.0000
     30 C           3.0608   -0.1869    5.5956 C.3     1  UNL1        0.0000
     31 H           3.7111   -0.6921    4.8885 H       1  UNL1        0.0000
     32 H           2.3132   -0.9032    5.9180 H       1  UNL1        0.0000
     33 H           3.6608    0.0711    6.4626 H       1  UNL1        0.0000
     34 C           1.4536    1.0530    3.1410 C.3     1  UNL1        0.0000
     35 C           0.7440    2.3060    2.6169 C.3     1  UNL1        0.0000
     36 H          -0.0432    2.6267    3.2948 H       1  UNL1        0.0000
     37 H           0.2906    2.1041    1.6462 H       1  UNL1        0.0000
     38 H           1.4432    3.1310    2.4953 H       1  UNL1        0.0000
     39 C           2.5110    0.6498    2.1088 C.3     1  UNL1        0.0000
     40 H           3.2267    1.4542    1.9512 H       1  UNL1        0.0000
     41 H           2.0371    0.4321    1.1512 H       1  UNL1        0.0000
     42 H           3.0495   -0.2415    2.4241 H       1  UNL1        0.0000
     43 C           0.4253   -0.0786    3.2390 C.3     1  UNL1        0.0000
     44 H          -0.3673    0.1790    3.9365 H       1  UNL1        0.0000
     45 H           0.8951   -0.9980    3.5792 H       1  UNL1        0.0000
     46 H          -0.0262   -0.2663    2.2654 H       1  UNL1        0.0000
     47 C           3.2359    4.6356    3.7429 C.ar    1  UNL1        0.0000
     48 C           2.0943    4.9862    4.5137 C.ar    1  UNL1        0.0000
     49 H           1.8025    4.3183    5.3080 H       1  UNL1        0.0000
     50 C           1.3777    6.1041    4.2415 C.ar    1  UNL1        0.0000
     51 H           0.4945    6.3457    4.8146 H       1  UNL1        0.0000
     52 C           1.7958    7.0076    3.2298 C.ar    1  UNL1        0.0000
     53 C           1.1059    8.2137    3.0284 C.ar    1  UNL1        0.0000
     54 H           0.2208    8.4031    3.6193 H       1  UNL1        0.0000
     55 C           1.5541    9.1443    2.1277 C.ar    1  UNL1        0.0000
     56 H           1.0171   10.0704    1.9823 H       1  UNL1        0.0000
     57 C           2.7334    8.9013    1.4226 C.ar    1  UNL1        0.0000
     58 H           3.1227    9.6533    0.7524 H       1  UNL1        0.0000
     59 C           3.4135    7.7185    1.5814 C.ar    1  UNL1        0.0000
     60 H           4.3460    7.5797    1.0601 H       1  UNL1        0.0000
     61 C           2.9490    6.7173    2.4541 C.ar    1  UNL1        0.0000
     62 C           3.6308    5.4542    2.6455 C.ar    1  UNL1        0.0000
@<TRIPOS>BOND
     1     5     3    1
     2     4     3    1
     3    13    11    1
     4     3     6    1
     5     3     2    1
     6    12    11    1
     7    11    14    1
     8    11     8    1
     9     2     1    1
    10    10     8    1
    11    58    57    1
    12    60    59    1
    13    41    39    1
    14     8     9    1
    15     8     7    1
    16    57    59   ar
    17    57    55   ar
    18    59    61   ar
    19    37    35    1
    20     1     7    1
    21     1    62    1
    22    40    39    1
    23    56    55    1
    24    39    42    1
    25    39    34    1
    26    55    53   ar
    27     7    15    1
    28    46    43    1
    29    61    62   ar
    30    61    52   ar
    31    38    35    1
    32    35    34    1
    33    35    36    1
    34    62    47   ar
    35    17    16    1
    36    53    52   ar
    37    53    54    1
    38    34    43    1
    39    34    25    1
    40    52    50   ar
    41    43    45    1
    42    43    44    1
    43    15    16    1
    44    15    23    2
    45    16    18    1
    46    16    19    1
    47    47    23    1
    48    47    48   ar
    49    23    24    1
    50    50    48   ar
    51    50    51    1
    52    48    49    1
    53    31    30    1
    54    25    24    1
    55    25    30    1
    56    25    26    1
    57    19    22    1
    58    19    20    1
    59    19    21    1
    60    30    32    1
    61    30    33    1
    62    27    26    1
    63    26    29    1
    64    26    28    1
