@<TRIPOS>MOLECULE
1,3,5,7,17,20
 62 64 0 0 0
SMALL
GASTEIGER

@<TRIPOS>ATOM
      1 C           0.2614    8.7782    6.8295 C.3     1  UNL1        0.0000
      2 H          -0.4126    9.6265    6.8710 H       1  UNL1        0.0000
      3 C           0.1609    7.7557    7.7772 C.2     1  UNL1        0.0000
      4 H          -0.5914    7.7998    8.5554 H       1  UNL1        0.0000
      5 C           1.1031    6.7097    7.7596 C.2     1  UNL1        0.0000
      6 H           1.0518    5.9299    8.5108 H       1  UNL1        0.0000
      7 C           2.1051    6.6764    6.7981 C.3     1  UNL1        0.0000
      8 H           2.8181    5.8671    6.8269 H       1  UNL1        0.0000
      9 C           4.5071    6.9573    4.9186 C.ar    1  UNL1        0.0000
     10 C           5.4318    6.9689    3.8863 C.ar    1  UNL1        0.0000
     11 C           5.2789    7.8585    2.8067 C.ar    1  UNL1        0.0000
     12 C           4.2497    8.7822    2.8475 C.ar    1  UNL1        0.0000
     13 C           2.3995    9.8817    4.0176 C.ar    1  UNL1        0.0000
     14 H           2.4733   10.6866    3.3064 H       1  UNL1        0.0000
     15 C           1.4663    9.9034    5.0000 C.ar    1  UNL1        0.0000
     16 H           0.7773   10.7314    5.0908 H       1  UNL1        0.0000
     17 C           2.3023    7.7612    5.8809 C.ar    1  UNL1        0.0000
     18 C           3.3889    7.8274    4.9367 C.ar    1  UNL1        0.0000
     19 C           3.3392    8.8241    3.9247 C.ar    1  UNL1        0.0000
     20 C           1.3471    8.8208    5.9096 C.ar    1  UNL1        0.0000
     21 O           4.7383    6.0690    5.9718 O.3     1  UNL1        0.0000
     22 C           5.3120    6.6953    7.1009 C.3     1  UNL1        0.0000
     23 H           6.2689    7.1653    6.8498 H       1  UNL1        0.0000
     24 H           5.4744    5.9109    7.8388 H       1  UNL1        0.0000
     25 H           4.6473    7.4588    7.5198 H       1  UNL1        0.0000
     26 C           6.5563    5.9663    3.9102 C.3     1  UNL1        0.0000
     27 H           7.4428    6.3761    3.4283 H       1  UNL1        0.0000
     28 H           6.8148    5.7302    4.9425 H       1  UNL1        0.0000
     29 C           6.1387    4.6685    3.2143 C.3     1  UNL1        0.0000
     30 H           5.3180    4.2051    3.7555 H       1  UNL1        0.0000
     31 H           6.9726    3.9705    3.1860 H       1  UNL1        0.0000
     32 H           5.8111    4.8618    2.1952 H       1  UNL1        0.0000
     33 C           6.2551    7.9105    1.6633 C.3     1  UNL1        0.0000
     34 H           6.6869    6.9294    1.4718 H       1  UNL1        0.0000
     35 H           5.7263    8.2289    0.7659 H       1  UNL1        0.0000
     36 C           7.3668    8.9219    1.9532 C.3     1  UNL1        0.0000
     37 H           6.9369    9.9074    2.1149 H       1  UNL1        0.0000
     38 H           8.0583    8.9764    1.1153 H       1  UNL1        0.0000
     39 H           7.9235    8.6446    2.8461 H       1  UNL1        0.0000
     40 O           4.1048    9.6781    1.8333 O.3     1  UNL1        0.0000
     41 SI          3.0939    9.7010    0.5364 Si      1  UNL1        0.0000
     42 C           3.3020    8.1240   -0.5243 C.3     1  UNL1        0.0000
     43 H           4.2351    8.1149   -1.0798 H       1  UNL1        0.0000
     44 H           2.4980    8.0285   -1.2465 H       1  UNL1        0.0000
     45 H           3.2852    7.2350    0.1004 H       1  UNL1        0.0000
     46 C           1.2419    9.7936    0.9902 C.3     1  UNL1        0.0000
     47 H           0.9841    9.0879    1.7750 H       1  UNL1        0.0000
     48 H           0.6202    9.5654    0.1304 H       1  UNL1        0.0000
     49 H           0.9518   10.7792    1.3410 H       1  UNL1        0.0000
     50 C           3.6873   11.2887   -0.3670 C.3     1  UNL1        0.0000
     51 C           2.8303   11.5116   -1.6127 C.3     1  UNL1        0.0000
     52 H           3.1500   12.4095   -2.1405 H       1  UNL1        0.0000
     53 H           1.7832   11.6292   -1.3458 H       1  UNL1        0.0000
     54 H           2.9149   10.6686   -2.2942 H       1  UNL1        0.0000
     55 C           5.1517   11.1655   -0.7950 C.3     1  UNL1        0.0000
     56 H           5.2844   10.3434   -1.4945 H       1  UNL1        0.0000
     57 H           5.7886   10.9910    0.0680 H       1  UNL1        0.0000
     58 H           5.4820   12.0816   -1.2844 H       1  UNL1        0.0000
     59 C           3.5539   12.5090    0.5475 C.3     1  UNL1        0.0000
     60 H           4.1431   12.3738    1.4513 H       1  UNL1        0.0000
     61 H           2.5166   12.6701    0.8322 H       1  UNL1        0.0000
     62 H           3.9075   13.4059    0.0394 H       1  UNL1        0.0000
@<TRIPOS>BOND
     1    54    51    1
     2    52    51    1
     3    51    53    1
     4    51    50    1
     5    56    55    1
     6    58    55    1
     7    44    42    1
     8    43    42    1
     9    55    50    1
    10    55    57    1
    11    42    45    1
    12    42    41    1
    13    50    41    1
    14    50    59    1
    15    62    59    1
    16    48    46    1
    17    41    46    1
    18    41    40    1
    19    59    61    1
    20    59    60    1
    21    35    33    1
    22    46    49    1
    23    46    47    1
    24    38    36    1
    25    34    33    1
    26    33    36    1
    27    33    11    1
    28    40    12    1
    29    36    37    1
    30    36    39    1
    31    32    29    1
    32    11    12   ar
    33    11    10   ar
    34    12    19   ar
    35    31    29    1
    36    29    30    1
    37    29    26    1
    38    14    13    1
    39    27    26    1
    40    10    26    1
    41    10     9   ar
    42    26    28    1
    43    19    13   ar
    44    19    18   ar
    45    13    15   ar
    46     9    18   ar
    47     9    21    1
    48    18    17   ar
    49    15    16    1
    50    15    20   ar
    51    17    20   ar
    52    17     7    1
    53    20     1    1
    54    21    22    1
    55     7     8    1
    56     7     5    1
    57     1     2    1
    58     1     3    1
    59    23    22    1
    60    22    25    1
    61    22    24    1
    62     5     3    2
    63     5     6    1
    64     3     4    1
