@<TRIPOS>MOLECULE
52,53,55,57,59,61
 62 64 0 0 0
SMALL
GASTEIGER

@<TRIPOS>ATOM
      1 C          10.2139    2.5646    3.7432 C.ar    1  UNL1        0.0000
      2 O          11.4308    3.2353    3.6432 O.3     1  UNL1        0.0000
      3 C          12.1792    2.8854    2.4993 C.3     1  UNL1        0.0000
      4 H          12.4364    1.8211    2.5028 H       1  UNL1        0.0000
      5 H          13.0921    3.4779    2.5393 H       1  UNL1        0.0000
      6 H          11.6392    3.1114    1.5730 H       1  UNL1        0.0000
      7 C          10.1245    1.5252    4.6561 C.ar    1  UNL1        0.0000
      8 C          11.3350    1.1719    5.4816 C.3     1  UNL1        0.0000
      9 H          11.0457    1.0277    6.5236 H       1  UNL1        0.0000
     10 H          12.0376    2.0044    5.4398 H       1  UNL1        0.0000
     11 C          12.0309   -0.0900    4.9634 C.3     1  UNL1        0.0000
     12 H          12.8880   -0.3283    5.5897 H       1  UNL1        0.0000
     13 H          12.3842    0.0592    3.9457 H       1  UNL1        0.0000
     14 H          11.3566   -0.9431    4.9591 H       1  UNL1        0.0000
     15 C           8.9265    0.7975    4.7851 C.ar    1  UNL1        0.0000
     16 C           8.7012   -0.2060    5.8825 C.3     1  UNL1        0.0000
     17 H           9.6401   -0.5721    6.2908 H       1  UNL1        0.0000
     18 H           8.1510   -1.0567    5.4821 H       1  UNL1        0.0000
     19 C           7.8735    0.4303    7.0009 C.3     1  UNL1        0.0000
     20 H           7.6887   -0.2916    7.7935 H       1  UNL1        0.0000
     21 H           6.9201    0.7746    6.6089 H       1  UNL1        0.0000
     22 H           8.3953    1.2863    7.4249 H       1  UNL1        0.0000
     23 C           7.9051    1.0292    3.8808 C.ar    1  UNL1        0.0000
     24 O           6.7736    0.2804    3.9237 O.3     1  UNL1        0.0000
     25 SI          6.2017   -1.1150    3.2869 Si      1  UNL1        0.0000
     26 C           4.5586   -0.6833    2.4219 C.3     1  UNL1        0.0000
     27 H           4.6923   -0.2093    1.4544 H       1  UNL1        0.0000
     28 H           3.9698   -0.0105    3.0381 H       1  UNL1        0.0000
     29 H           3.9657   -1.5776    2.2627 H       1  UNL1        0.0000
     30 C           5.7944   -2.2728    4.7476 C.3     1  UNL1        0.0000
     31 H           5.4535   -1.6999    5.6043 H       1  UNL1        0.0000
     32 H           6.6399   -2.8723    5.0708 H       1  UNL1        0.0000
     33 H           4.9994   -2.9596    4.4775 H       1  UNL1        0.0000
     34 C           7.4385   -1.9553    2.0621 C.3     1  UNL1        0.0000
     35 C           6.8683   -3.2886    1.5702 C.3     1  UNL1        0.0000
     36 H           5.9250   -3.1361    1.0518 H       1  UNL1        0.0000
     37 H           6.6947   -3.9660    2.4025 H       1  UNL1        0.0000
     38 H           7.5625   -3.7672    0.8801 H       1  UNL1        0.0000
     39 C           8.7832   -2.2219    2.7454 C.3     1  UNL1        0.0000
     40 H           8.6641   -2.8760    3.6065 H       1  UNL1        0.0000
     41 H           9.2383   -1.2910    3.0778 H       1  UNL1        0.0000
     42 H           9.4703   -2.7051    2.0505 H       1  UNL1        0.0000
     43 C           7.6982   -1.0608    0.8464 C.3     1  UNL1        0.0000
     44 H           6.7784   -0.8648    0.3005 H       1  UNL1        0.0000
     45 H           8.3969   -1.5455    0.1642 H       1  UNL1        0.0000
     46 H           8.1277   -0.1082    1.1492 H       1  UNL1        0.0000
     47 C           7.9917    2.0667    2.9266 C.ar    1  UNL1        0.0000
     48 C           6.9695    2.2383    1.9587 C.ar    1  UNL1        0.0000
     49 H           6.1456    1.5461    1.9638 H       1  UNL1        0.0000
     50 C           7.0332    3.2351    1.0388 C.ar    1  UNL1        0.0000
     51 H           6.2775    3.3275    0.2708 H       1  UNL1        0.0000
     52 C           8.0546    4.2162    1.1043 C.ar    1  UNL1        0.0000
     53 C           8.0328    5.3415    0.2272 C.3     1  UNL1        0.0000
     54 H           7.2972    5.3572   -0.5701 H       1  UNL1        0.0000
     55 C           9.0530    6.2967    0.2571 C.3     1  UNL1        0.0000
     56 H           9.1094    7.0655   -0.5043 H       1  UNL1        0.0000
     57 C          10.0329    6.2183    1.2633 C.3     1  UNL1        0.0000
     58 H          10.8326    6.9497    1.2912 H       1  UNL1        0.0000
     59 C          10.0097    5.1864    2.1958 C.3     1  UNL1        0.0000
     60 H          10.7933    5.1350    2.9371 H       1  UNL1        0.0000
     61 C           9.0748    4.1080    2.0932 C.ar    1  UNL1        0.0000
     62 C           9.1159    2.9339    2.9296 C.ar    1  UNL1        0.0000
@<TRIPOS>BOND
     1    54    53    1
     2    56    55    1
     3    45    43    1
     4    53    55    1
     5    53    52    1
     6    55    57    1
     7    51    50    1
     8    44    43    1
     9    43    46    1
    10    43    34    1
    11    38    35    1
    12    50    52   ar
    13    50    48   ar
    14    36    35    1
    15    52    61   ar
    16    57    58    1
    17    57    59    1
    18    27    26    1
    19    35    34    1
    20    35    37    1
    21     6     3    1
    22    48    49    1
    23    48    47   ar
    24    42    39    1
    25    34    39    1
    26    34    25    1
    27    61    59    1
    28    61    62   ar
    29    59    60    1
    30    29    26    1
    31    26    28    1
    32    26    25    1
    33     3     4    1
    34     3     5    1
    35     3     2    1
    36    39    41    1
    37    39    40    1
    38    47    62   ar
    39    47    23   ar
    40    62     1   ar
    41    25    24    1
    42    25    30    1
    43     2     1    1
    44     1     7   ar
    45    23    24    1
    46    23    15   ar
    47    13    11    1
    48    33    30    1
    49     7    15   ar
    50     7     8    1
    51    30    32    1
    52    30    31    1
    53    15    16    1
    54    14    11    1
    55    11     8    1
    56    11    12    1
    57    10     8    1
    58     8     9    1
    59    18    16    1
    60    16    17    1
    61    16    19    1
    62    21    19    1
    63    19    22    1
    64    19    20    1
