@<TRIPOS>MOLECULE
5,6,7,8,9,10
 45 46 0 0 0
SMALL
GASTEIGER

@<TRIPOS>ATOM
      1 SI          4.9225    4.5708   16.1701 Si      1  UNL1        0.0000
      2 O           4.8210    1.1476   15.6127 O.2     1  UNL1        0.0000
      3 O           3.5371    0.6054   17.3700 O.3     1  UNL1        0.0000
      4 N           3.6191    3.6254   15.4644 N.pl3   1  UNL1        0.0000
      5 C           2.0663    2.7529   13.9984 C.3     1  UNL1        0.0000
      6 C           1.5265    2.5027   12.7448 C.3     1  UNL1        0.0000
      7 C           2.0624    3.1825   11.6275 C.2     1  UNL1        0.0000
      8 C           3.0868    4.1105   11.8056 C.2     1  UNL1        0.0000
      9 C           3.6618    4.3407   13.0769 C.2     1  UNL1        0.0000
     10 C           3.1726    3.6286   14.1690 C.2     1  UNL1        0.0000
     11 C           2.9484    2.5628   16.1936 C.3     1  UNL1        0.0000
     12 C           1.7500    2.1161   15.3227 C.3     1  UNL1        0.0000
     13 C           5.3927    3.7098   17.8040 C.3     1  UNL1        0.0000
     14 C           6.4593    4.5202   15.0371 C.3     1  UNL1        0.0000
     15 C           4.3097    6.3651   16.5345 C.3     1  UNL1        0.0000
     16 C           3.8751    7.0963   15.2619 C.3     1  UNL1        0.0000
     17 C           5.4465    7.1613   17.1817 C.3     1  UNL1        0.0000
     18 C           3.1190    6.3363   17.4977 C.3     1  UNL1        0.0000
     19 C           3.8954    1.3773   16.3443 C.2     1  UNL1        0.0000
     20 C           4.3262   -0.5585   17.5905 C.3     1  UNL1        0.0000
     21 H           0.7624    1.7459   12.6108 H       1  UNL1        0.0000
     22 H           1.7049    2.9456   10.6334 H       1  UNL1        0.0000
     23 H           3.5266    4.5957   10.9420 H       1  UNL1        0.0000
     24 H           4.5207    4.9855   13.1742 H       1  UNL1        0.0000
     25 H           2.6337    2.8961   17.1830 H       1  UNL1        0.0000
     26 H           1.6805    1.0277   15.2584 H       1  UNL1        0.0000
     27 H           0.8086    2.4926   15.7294 H       1  UNL1        0.0000
     28 H           5.8163    2.7291   17.6157 H       1  UNL1        0.0000
     29 H           6.1464    4.2874   18.3285 H       1  UNL1        0.0000
     30 H           4.5515    3.5858   18.4776 H       1  UNL1        0.0000
     31 H           6.4972    3.5884   14.4801 H       1  UNL1        0.0000
     32 H           6.4920    5.3401   14.3263 H       1  UNL1        0.0000
     33 H           7.3656    4.5805   15.6318 H       1  UNL1        0.0000
     34 H           3.5730    8.1141   15.5040 H       1  UNL1        0.0000
     35 H           4.6900    7.1557   14.5443 H       1  UNL1        0.0000
     36 H           3.0256    6.6013   14.7927 H       1  UNL1        0.0000
     37 H           5.1214    8.1793   17.3899 H       1  UNL1        0.0000
     38 H           5.7566    6.7078   18.1195 H       1  UNL1        0.0000
     39 H           6.3106    7.2089   16.5238 H       1  UNL1        0.0000
     40 H           2.7870    7.3509   17.7113 H       1  UNL1        0.0000
     41 H           2.2810    5.7987   17.0617 H       1  UNL1        0.0000
     42 H           3.3887    5.8647   18.4400 H       1  UNL1        0.0000
     43 H           5.3634   -0.2792   17.7847 H       1  UNL1        0.0000
     44 H           4.2957   -1.2100   16.7153 H       1  UNL1        0.0000
     45 H           3.8961   -1.0572   18.4547 H       1  UNL1        0.0000
@<TRIPOS>BOND
     1    22     7    1
     2    23     8    1
     3     7     8    2
     4     7     6    1
     5     8     9    1
     6    21     6    1
     7     6     5    1
     8     9    24    1
     9     9    10    2
    10     5    10    1
    11     5    12    1
    12    10     4    1
    13    32    14    1
    14    31    14    1
    15    35    16    1
    16    36    16    1
    17    14    33    1
    18    14     1    1
    19    26    12    1
    20    16    34    1
    21    16    15    1
    22    12    27    1
    23    12    11    1
    24     4     1    1
    25     4    11    1
    26     2    19    2
    27     1    15    1
    28     1    13    1
    29    11    19    1
    30    11    25    1
    31    19     3    1
    32    39    17    1
    33    15    17    1
    34    15    18    1
    35    44    20    1
    36    41    18    1
    37    17    37    1
    38    17    38    1
    39     3    20    1
    40    18    40    1
    41    18    42    1
    42    20    43    1
    43    20    45    1
    44    28    13    1
    45    13    29    1
    46    13    30    1
