@<TRIPOS>MOLECULE
4,5,6,7,8,9
 45 46 0 0 0
SMALL
GASTEIGER

@<TRIPOS>ATOM
      1 SI          1.8747   12.7924    6.9795 Si      1  UNL1        0.0000
      2 O           0.6222   10.1378    6.6360 O.2     1  UNL1        0.0000
      3 O          -0.9897    8.6207    8.4729 O.3     1  UNL1        0.0000
      4 C          -0.0186   11.5159   10.5453 C.2     1  UNL1        0.0000
      5 C           0.7016   12.2646    9.6015 C.3     1  UNL1        0.0000
      6 C           0.9453   11.7989    8.3003 C.2     1  UNL1        0.0000
      7 C           0.3676   10.5765    7.9230 C.2     1  UNL1        0.0000
      8 C          -0.4288    9.8355    8.8214 C.3     1  UNL1        0.0000
      9 C          -0.6271   10.3135   10.1397 C.2     1  UNL1        0.0000
     10 C          -1.3946    9.4444   11.1056 C.3     1  UNL1        0.0000
     11 C          -1.8527   10.2550   12.3188 C.3     1  UNL1        0.0000
     12 C          -0.6880   11.0206   12.9340 C.3     1  UNL1        0.0000
     13 C          -0.1745   12.0612   11.9441 C.3     1  UNL1        0.0000
     14 C          -0.5325    8.2380   11.5024 C.3     1  UNL1        0.0000
     15 C           2.4211   14.4309    7.7935 C.3     1  UNL1        0.0000
     16 C           0.6773   13.1640    5.5501 C.3     1  UNL1        0.0000
     17 C           3.4335   11.8427    6.4098 C.3     1  UNL1        0.0000
     18 C           1.3093    8.9015    6.5403 C.3     1  UNL1        0.0000
     19 C          -1.9858    8.6773    7.4618 C.3     1  UNL1        0.0000
     20 H           1.1807   13.1822    9.9250 H       1  UNL1        0.0000
     21 H          -2.2809    9.0553   10.5915 H       1  UNL1        0.0000
     22 H          -2.2945    9.5824   13.0558 H       1  UNL1        0.0000
     23 H          -2.6217   10.9647   12.0039 H       1  UNL1        0.0000
     24 H           0.1124   10.3275   13.1992 H       1  UNL1        0.0000
     25 H          -1.0080   11.5187   13.8505 H       1  UNL1        0.0000
     26 H          -0.8802   12.8978   11.9083 H       1  UNL1        0.0000
     27 H           0.7847   12.4626   12.2854 H       1  UNL1        0.0000
     28 H          -0.3297    7.6274   10.6263 H       1  UNL1        0.0000
     29 H           0.4181    8.5537   11.9269 H       1  UNL1        0.0000
     30 H          -1.0563    7.6293   12.2358 H       1  UNL1        0.0000
     31 H           2.9355   15.0497    7.0662 H       1  UNL1        0.0000
     32 H           1.5687   14.9983    8.1544 H       1  UNL1        0.0000
     33 H           3.1029   14.2789    8.6250 H       1  UNL1        0.0000
     34 H           1.1571   13.7527    4.7744 H       1  UNL1        0.0000
     35 H           0.3113   12.2488    5.0971 H       1  UNL1        0.0000
     36 H          -0.1871   13.7187    5.9071 H       1  UNL1        0.0000
     37 H           4.1041   12.5162    5.8860 H       1  UNL1        0.0000
     38 H           3.9856   11.4168    7.2434 H       1  UNL1        0.0000
     39 H           3.1814   11.0381    5.7280 H       1  UNL1        0.0000
     40 H           0.7557    8.0854    7.0105 H       1  UNL1        0.0000
     41 H           2.2998    8.9739    7.0018 H       1  UNL1        0.0000
     42 H          -1.5900    9.0629    6.5190 H       1  UNL1        0.0000
     43 H           1.4169    8.7031    5.4755 H       1  UNL1        0.0000
     44 H          -2.8203    9.3122    7.7813 H       1  UNL1        0.0000
     45 H          -2.3261    7.6520    7.3270 H       1  UNL1        0.0000
@<TRIPOS>BOND
     1    34    16    1
     2    35    16    1
     3    43    18    1
     4    16    36    1
     5    16     1    1
     6    39    17    1
     7    37    17    1
     8    17     1    1
     9    17    38    1
    10    42    19    1
    11    18     2    1
    12    18    41    1
    13    18    40    1
    14     2     7    1
    15     1    15    1
    16     1     6    1
    17    31    15    1
    18    45    19    1
    19    19    44    1
    20    19     3    1
    21    15    32    1
    22    15    33    1
    23     7     6    2
    24     7     8    1
    25     6     5    1
    26     3     8    1
    27     8     9    1
    28     5    20    1
    29     5     4    1
    30     9     4    2
    31     9    10    1
    32     4    13    1
    33    21    10    1
    34    28    14    1
    35    10    14    1
    36    10    11    1
    37    14    29    1
    38    14    30    1
    39    26    13    1
    40    13    27    1
    41    13    12    1
    42    23    11    1
    43    11    12    1
    44    11    22    1
    45    12    24    1
    46    12    25    1
