@<TRIPOS>MOLECULE
2,3,4,5,6,7
 24 24 0 0 0
SMALL
GASTEIGER

@<TRIPOS>ATOM
      1 SI          4.0531    4.8158    5.9658 Si      1  UNL1        0.0000
      2 C           3.8263    4.8421    4.0730 C.3     1  UNL1        0.0000
      3 C           4.8447    4.3835    3.2303 C.3     1  UNL1        0.0000
      4 C           4.7128    4.4110    1.8205 C.2     1  UNL1        0.0000
      5 C           3.5268    4.8670    1.2492 C.2     1  UNL1        0.0000
      6 C           2.4809    5.3402    2.0782 C.3     1  UNL1        0.0000
      7 C           2.6324    5.3129    3.4642 C.3     1  UNL1        0.0000
      8 C           4.7250    3.0980    6.4371 C.3     1  UNL1        0.0000
      9 C           5.2983    6.2008    6.3918 C.3     1  UNL1        0.0000
     10 C           2.3733    5.1329    6.8029 C.3     1  UNL1        0.0000
     11 H           5.7962    4.0789    3.6579 H       1  UNL1        0.0000
     12 H           5.5553    4.1365    1.1918 H       1  UNL1        0.0000
     13 H           3.4347    4.9488    0.1697 H       1  UNL1        0.0000
     14 H           1.5983    5.7860    1.6281 H       1  UNL1        0.0000
     15 H           1.8544    5.7380    4.0915 H       1  UNL1        0.0000
     16 H           4.7415    2.9701    7.5148 H       1  UNL1        0.0000
     17 H           4.1065    2.3067    6.0183 H       1  UNL1        0.0000
     18 H           5.7387    2.9460    6.0777 H       1  UNL1        0.0000
     19 H           5.4789    6.2272    7.4613 H       1  UNL1        0.0000
     20 H           6.2559    6.0473    5.9027 H       1  UNL1        0.0000
     21 H           4.9321    7.1804    6.0976 H       1  UNL1        0.0000
     22 H           2.4623    5.0130    7.8778 H       1  UNL1        0.0000
     23 H           2.0054    6.1387    6.6204 H       1  UNL1        0.0000
     24 H           1.6197    4.4297    6.4592 H       1  UNL1        0.0000
@<TRIPOS>BOND
     1    13     5    1
     2    12     4    1
     3     5     4    2
     4     5     6    1
     5    14     6    1
     6     4     3    1
     7     6     7    1
     8     3    11    1
     9     3     2    1
    10     7     2    1
    11     7    15    1
    12     2     1    1
    13    20     9    1
    14     1     9    1
    15     1     8    1
    16     1    10    1
    17    17     8    1
    18    18     8    1
    19    21     9    1
    20     9    19    1
    21     8    16    1
    22    24    10    1
    23    23    10    1
    24    10    22    1
