@<TRIPOS>MOLECULE
4,5,6,7,8,10
 51 52 0 0 0
SMALL
GASTEIGER

@<TRIPOS>ATOM
      1 SI          1.8182    1.7942    1.0386 Si      1  UNL1        0.0000
      2 C           2.5791    0.0397    1.1544 C.3     1  UNL1        0.0000
      3 C           2.5538    2.4084   -0.6259 C.3     1  UNL1        0.0000
      4 C          -0.0699    1.7539    1.1878 C.3     1  UNL1        0.0000
      5 C          -1.0349    2.5521    0.5161 C.3     1  UNL1        0.0000
      6 C          -2.2580    2.4701    1.2227 C.2     1  UNL1        0.0000
      7 C          -2.0701    1.6026    2.3339 C.2     1  UNL1        0.0000
      8 C          -0.7242    1.1668    2.3161 C.3     1  UNL1        0.0000
      9 C           2.1165    3.0203    2.4416 C.2     1  UNL1        0.0000
     10 C           1.3901    4.3098    2.4764 C.3     1  UNL1        0.0000
     11 C           1.8506    4.9737    3.6869 C.2     1  UNL1        0.0000
     12 C           2.6695    4.1144    4.3830 C.2     1  UNL1        0.0000
     13 C           2.8253    2.9143    3.6206 C.2     1  UNL1        0.0000
     14 C          -0.9186    3.0950   -0.8787 C.3     1  UNL1        0.0000
     15 C          -3.5778    2.9850    0.7290 C.3     1  UNL1        0.0000
     16 C          -3.1762    1.1179    3.2269 C.3     1  UNL1        0.0000
     17 C          -0.1264    0.0880    3.1746 C.3     1  UNL1        0.0000
     18 C           1.2602    5.1558    1.2168 C.3     1  UNL1        0.0000
     19 C           1.5583    6.4059    4.0090 C.3     1  UNL1        0.0000
     20 C           3.3207    4.3307    5.7116 C.3     1  UNL1        0.0000
     21 C           3.6489    1.7591    4.0877 C.3     1  UNL1        0.0000
     22 H           3.6428    0.0870    0.9453 H       1  UNL1        0.0000
     23 H           2.1326   -0.6079    0.4058 H       1  UNL1        0.0000
     24 H           2.4523   -0.4371    2.1178 H       1  UNL1        0.0000
     25 H           2.3143    3.4371   -0.8682 H       1  UNL1        0.0000
     26 H           2.2307    1.7810   -1.4512 H       1  UNL1        0.0000
     27 H           3.6360    2.3377   -0.5746 H       1  UNL1        0.0000
     28 H          -1.5681    2.5152   -1.5399 H       1  UNL1        0.0000
     29 H           0.0969    3.0040   -1.2519 H       1  UNL1        0.0000
     30 H          -1.2349    4.1339   -0.9464 H       1  UNL1        0.0000
     31 H          -3.4650    3.9515    0.2423 H       1  UNL1        0.0000
     32 H          -4.2942    3.0892    1.5422 H       1  UNL1        0.0000
     33 H          -3.9994    2.2867    0.0007 H       1  UNL1        0.0000
     34 H          -3.7549    0.3419    2.7190 H       1  UNL1        0.0000
     35 H          -3.8568    1.9307    3.4812 H       1  UNL1        0.0000
     36 H          -2.7917    0.6968    4.1546 H       1  UNL1        0.0000
     37 H           0.8001    0.4184    3.6476 H       1  UNL1        0.0000
     38 H           0.1007   -0.7833    2.5580 H       1  UNL1        0.0000
     39 H          -0.8201   -0.2335    3.9504 H       1  UNL1        0.0000
     40 H           0.7301    6.0832    1.4357 H       1  UNL1        0.0000
     41 H           0.7386    4.6303    0.4168 H       1  UNL1        0.0000
     42 H           2.2588    5.4193    0.8529 H       1  UNL1        0.0000
     43 H           1.8276    6.6404    5.0356 H       1  UNL1        0.0000
     44 H           0.5031    6.6326    3.8652 H       1  UNL1        0.0000
     45 H           2.1423    7.0606    3.3575 H       1  UNL1        0.0000
     46 H           4.4026    4.4168    5.5999 H       1  UNL1        0.0000
     47 H           3.1213    3.4901    6.3770 H       1  UNL1        0.0000
     48 H           2.9568    5.2375    6.1877 H       1  UNL1        0.0000
     49 H           4.6152    2.1085    4.4497 H       1  UNL1        0.0000
     50 H           3.8154    1.0515    3.2824 H       1  UNL1        0.0000
     51 H           3.1582    1.2404    4.9147 H       1  UNL1        0.0000
@<TRIPOS>BOND
     1    28    14    1
     2    26     3    1
     3    29    14    1
     4    30    14    1
     5    14     5    1
     6    25     3    1
     7     3    27    1
     8     3     1    1
     9    33    15    1
    10    31    15    1
    11    23     2    1
    12    41    18    1
    13     5     4    1
    14     5     6    1
    15    15     6    1
    16    15    32    1
    17    42    18    1
    18    22     2    1
    19     1     2    1
    20     1     4    1
    21     1     9    1
    22     2    24    1
    23     4     8    1
    24    18    40    1
    25    18    10    1
    26     6     7    2
    27     8     7    1
    28     8    17    1
    29     7    16    1
    30     9    10    1
    31     9    13    2
    32    10    11    1
    33    38    17    1
    34    34    16    1
    35    17    37    1
    36    17    39    1
    37    16    35    1
    38    16    36    1
    39    50    21    1
    40    45    19    1
    41    13    21    1
    42    13    12    1
    43    11    19    1
    44    11    12    2
    45    44    19    1
    46    19    43    1
    47    21    49    1
    48    21    51    1
    49    12    20    1
    50    46    20    1
    51    20    48    1
    52    20    47    1
