@<TRIPOS>MOLECULE
2,3,4,5,6,7
 53 53 0 0 0
SMALL
GASTEIGER

@<TRIPOS>ATOM
      1 C           0.5600    2.2080   13.8240 C.3     1  UNL1        0.0000
      2 C          -0.2815    1.2162   14.5814 C.3     1  UNL1        0.0000
      3 C          -1.3137    1.6593   15.3674 C.3     1  UNL1        0.0000
      4 C          -1.4352    2.9914   15.8800 C.2     1  UNL1        0.0000
      5 C          -0.4223    3.9183   16.0422 C.2     1  UNL1        0.0000
      6 C           0.9651    3.7481   15.7346 C.3     1  UNL1        0.0000
      7 C           1.4652    2.8082   14.8698 C.3     1  UNL1        0.0000
      8 C           1.3215    1.5876   12.6361 C.3     1  UNL1        0.0000
      9 C           2.1585    2.6709   11.9626 C.2     1  UNL1        0.0000
     10 O           2.0875    3.8458   12.2112 O.2     1  UNL1        0.0000
     11 O           2.9535    2.1522   11.0296 O.3     1  UNL1        0.0000
     12 C           3.7370    3.0746   10.2840 C.3     1  UNL1        0.0000
     13 H           3.1139    3.5556    9.5276 H       1  UNL1        0.0000
     14 H           4.5278    2.4988    9.8106 H       1  UNL1        0.0000
     15 H           4.1540    3.8366   10.9447 H       1  UNL1        0.0000
     16 C           2.2231    0.4555   13.1338 C.2     1  UNL1        0.0000
     17 O           1.8808   -0.6937   13.2000 O.2     1  UNL1        0.0000
     18 O           3.4232    0.9026   13.4919 O.3     1  UNL1        0.0000
     19 C           4.3507   -0.0777   13.9538 C.3     1  UNL1        0.0000
     20 H           3.9876   -0.5340   14.8754 H       1  UNL1        0.0000
     21 H           5.2843    0.4501   14.1287 H       1  UNL1        0.0000
     22 H           4.4796   -0.8531   13.1971 H       1  UNL1        0.0000
     23 C           0.3695    1.0028   11.5719 C.3     1  UNL1        0.0000
     24 C          -0.6431    2.0097   11.0265 C.3     1  UNL1        0.0000
     25 C          -1.2243    1.5214    9.6930 C.3     1  UNL1        0.0000
     26 C          -0.1826    1.4149    8.6901 C.1     1  UNL1        0.0000
     27 C           0.7200    1.3398    7.8950 C.1     1  UNL1        0.0000
     28 SI          2.1339    1.1376    6.7099 Si      1  UNL1        0.0000
     29 C           3.4759    0.1126    7.5980 C.3     1  UNL1        0.0000
     30 C           1.5084    0.2336    5.1537 C.3     1  UNL1        0.0000
     31 H           2.3150    0.0529    4.4487 H       1  UNL1        0.0000
     32 H           0.7474    0.8142    4.6409 H       1  UNL1        0.0000
     33 H           1.0713   -0.7275    5.4071 H       1  UNL1        0.0000
     34 C           2.8031    2.8601    6.2333 C.3     1  UNL1        0.0000
     35 H           2.0103    3.4921    5.8444 H       1  UNL1        0.0000
     36 H           3.5680    2.7854    5.4653 H       1  UNL1        0.0000
     37 H           3.2437    3.3724    7.0834 H       1  UNL1        0.0000
     38 H          -0.0765    3.0098   13.4163 H       1  UNL1        0.0000
     39 H          -0.2559    0.1813   14.2672 H       1  UNL1        0.0000
     40 H          -2.1296    0.9795   15.6003 H       1  UNL1        0.0000
     41 H          -2.4150    3.2686   16.2587 H       1  UNL1        0.0000
     42 H          -0.6898    4.8490   16.5343 H       1  UNL1        0.0000
     43 H           1.6493    4.4526   16.1995 H       1  UNL1        0.0000
     44 H           2.5329    2.7573   14.7057 H       1  UNL1        0.0000
     45 H           0.9851    0.6415   10.7442 H       1  UNL1        0.0000
     46 H          -0.1466    0.1405   11.9964 H       1  UNL1        0.0000
     47 H          -1.4612    2.1520   11.7359 H       1  UNL1        0.0000
     48 H          -0.1588    2.9756   10.8646 H       1  UNL1        0.0000
     49 H          -1.9906    2.2195    9.3443 H       1  UNL1        0.0000
     50 H          -1.6899    0.5408    9.8286 H       1  UNL1        0.0000
     51 H           3.1972   -0.9358    7.6442 H       1  UNL1        0.0000
     52 H           3.6174    0.4540    8.6188 H       1  UNL1        0.0000
     53 H           4.4339    0.1761    7.0896 H       1  UNL1        0.0000
@<TRIPOS>BOND
     1    31    30    1
     2    32    30    1
     3    30    33    1
     4    30    28    1
     5    36    34    1
     6    35    34    1
     7    34    28    1
     8    34    37    1
     9    28    29    1
    10    28    27    1
    11    53    29    1
    12    29    51    1
    13    29    52    1
    14    27    26    3
    15    26    25    1
    16    49    25    1
    17    13    12    1
    18    25    50    1
    19    25    24    1
    20    14    12    1
    21    12    15    1
    22    12    11    1
    23    45    23    1
    24    48    24    1
    25    24    23    1
    26    24    47    1
    27    11     9    1
    28    23    46    1
    29    23     8    1
    30     9    10    2
    31     9     8    1
    32     8    16    1
    33     8     1    1
    34    16    17    2
    35    16    18    1
    36    22    19    1
    37    38     1    1
    38    18    19    1
    39     1     2    1
    40     1     7    1
    41    19    21    1
    42    19    20    1
    43    39     2    1
    44     2     3    1
    45    44     7    1
    46     7     6    1
    47     3    40    1
    48     3     4    1
    49     6     5    1
    50     6    43    1
    51     4     5    2
    52     4    41    1
    53     5    42    1
