@<TRIPOS>MOLECULE
1,2,3,4,5,6
 30 30 0 0 0
SMALL
GASTEIGER

@<TRIPOS>ATOM
      1 C          -1.1629    2.0019    3.1251 C.3     1  UNL1       -0.0087
      2 C          -1.2075    3.1407    4.0135 C.3     1  UNL1       -0.0087
      3 C          -1.1408    2.9352    5.4109 C.3     1  UNL1        0.0049
      4 C          -0.6320    1.7042    5.8847 C.2     1  UNL1       -0.0658
      5 C          -0.5892    0.5649    4.9963 C.2     1  UNL1       -0.0658
      6 C          -1.0553    0.7010    3.6686 C.3     1  UNL1        0.0049
      7 C          -1.5657    2.1864    1.6837 C.3     1  UNL1       -0.0577
      8 C          -1.6587    4.4724    3.4684 C.3     1  UNL1       -0.0577
      9 C          -1.6444    3.9854    6.3662 C.3     1  UNL1       -0.0545
     10 C          -0.4551    1.4771    7.3651 C.3     1  UNL1       -0.0430
     11 C          -0.3708   -0.8067    5.5842 C.3     1  UNL1       -0.0430
     12 C          -1.4720   -0.5049    2.8678 C.3     1  UNL1       -0.0545
     13 H          -1.2585    1.3410    1.0759 H       1  UNL1        0.0236
     14 H          -1.1024    3.0729    1.2572 H       1  UNL1        0.0236
     15 H          -2.6503    2.3011    1.6061 H       1  UNL1        0.0236
     16 H          -1.4176    5.2814    4.1508 H       1  UNL1        0.0236
     17 H          -2.7389    4.4643    3.2989 H       1  UNL1        0.0236
     18 H          -1.1715    4.6949    2.5221 H       1  UNL1        0.0236
     19 H          -2.0119    3.5224    7.2795 H       1  UNL1        0.0239
     20 H          -0.8689    4.7014    6.6353 H       1  UNL1        0.0239
     21 H          -2.4721    4.5328    5.9190 H       1  UNL1        0.0239
     22 H          -1.3491    1.0082    7.7851 H       1  UNL1        0.0275
     23 H          -0.2686    2.4089    7.8897 H       1  UNL1        0.0275
     24 H           0.3918    0.8240    7.5627 H       1  UNL1        0.0275
     25 H           0.4485   -0.8010    6.2991 H       1  UNL1        0.0275
     26 H          -0.1196   -1.5315    4.8162 H       1  UNL1        0.0275
     27 H          -1.2718   -1.1423    6.1048 H       1  UNL1        0.0275
     28 H          -1.8452   -1.2857    3.5273 H       1  UNL1        0.0239
     29 H          -2.2753   -0.2416    2.1824 H       1  UNL1        0.0239
     30 H          -0.6484   -0.9158    2.2852 H       1  UNL1        0.0239
@<TRIPOS>BOND
     1    13     7    1
     2    14     7    1
     3    15     7    1
     4     7     1    1
     5    29    12    1
     6    30    12    1
     7    18     8    1
     8    12    28    1
     9    12     6    1
    10     1     6    1
    11     1     2    1
    12    17     8    1
    13     8     2    1
    14     8    16    1
    15     6     5    1
    16     2     3    1
    17    26    11    1
    18     5    11    1
    19     5     4    2
    20     3     4    1
    21     3     9    1
    22    11    27    1
    23    11    25    1
    24     4    10    1
    25    21     9    1
    26     9    20    1
    27     9    19    1
    28    10    24    1
    29    10    22    1
    30    10    23    1
