@<TRIPOS>MOLECULE
1,2,3,4,5,6
 15 15 0 0 0
SMALL
GASTEIGER

@<TRIPOS>ATOM
      1 C           6.0621   -1.1321   12.4966 C.2     1  UNL1       -0.0683
      2 C           5.8947   -0.6374   13.7967 C.2     1  UNL1       -0.0768
      3 C           4.6363   -0.6913   14.4420 C.3     1  UNL1        0.0051
      4 C           3.5480   -1.3001   13.7965 C.2     1  UNL1       -0.0796
      5 C           3.6860   -1.7743   12.4825 C.2     1  UNL1       -0.0794
      6 C           4.9196   -1.6260   11.8176 C.3     1  UNL1        0.0078
      7 C           7.4154   -1.2341   11.8560 C.3     1  UNL1       -0.0432
      8 H           6.7570   -0.2936   14.3588 H       1  UNL1        0.0578
      9 H           4.5584   -0.4036   15.4860 H       1  UNL1        0.0394
     10 H           2.6238   -1.4645   14.3404 H       1  UNL1        0.0575
     11 H           2.8730   -2.3060   12.0035 H       1  UNL1        0.0575
     12 H           5.0455   -2.0584   10.8284 H       1  UNL1        0.0397
     13 H           7.6987   -2.2843   11.7605 H       1  UNL1        0.0275
     14 H           7.4096   -0.7966   10.8586 H       1  UNL1        0.0275
     15 H           8.1714   -0.7288   12.4523 H       1  UNL1        0.0275
@<TRIPOS>BOND
     1    12     6    1
     2    14     7    1
     3    13     7    1
     4     6     5    1
     5     6     1    1
     6     7    15    1
     7     7     1    1
     8    11     5    1
     9     5     4    2
    10     1     2    2
    11     4    10    1
    12     4     3    1
    13     2     8    1
    14     2     3    1
    15     3     9    1
