@<TRIPOS>MOLECULE
1,17,18,19,20,21
 47 47 0 0 0
SMALL
GASTEIGER

@<TRIPOS>ATOM
      1 C           0.4655    1.9551    3.6154 C.3     1  UNL1        0.0000
      2 C           0.1637    2.9617    4.6437 C.2     1  UNL1        0.0000
      3 O          -0.0093    2.5490    5.9524 O.2     1  UNL1        0.0000
      4 C           1.0545    1.8451    6.5673 C.3     1  UNL1        0.0000
      5 C          -0.0837    4.2579    4.3980 C.2     1  UNL1        0.0000
      6 C          -0.2186    4.7807    3.0307 C.2     1  UNL1        0.0000
      7 C           0.5228    5.6869    2.4926 C.1     1  UNL1        0.0000
      8 O           1.1687    6.4492    1.8845 O.2     1  UNL1        0.0000
      9 SI         -1.7992    4.3426    2.0444 Si      1  UNL1        0.0000
     10 C          -3.1013    3.7895    3.3176 C.3     1  UNL1        0.0000
     11 C          -2.3721    5.8915    1.0976 C.3     1  UNL1        0.0000
     12 C          -1.4828    2.9344    0.7910 C.3     1  UNL1        0.0000
     13 SI         -0.4140    5.4034    5.8865 Si      1  UNL1        0.0000
     14 C          -1.9258    4.8547    6.9121 C.3     1  UNL1        0.0000
     15 C          -0.7721    7.1336    5.1676 C.3     1  UNL1        0.0000
     16 C           1.1563    5.4874    6.9668 C.3     1  UNL1        0.0000
     17 C          -0.1654    0.7020    3.6396 C.2     1  UNL1        0.0000
     18 C          -0.0200   -0.1992    2.5678 C.2     1  UNL1        0.0000
     19 C           0.7935    0.1323    1.4844 C.2     1  UNL1        0.0000
     20 C           1.4707    1.3683    1.4656 C.2     1  UNL1        0.0000
     21 C           1.3310    2.2549    2.5312 C.3     1  UNL1        0.0000
     22 H          -0.8677    0.4801    4.4362 H       1  UNL1        0.0000
     23 H          -0.5961   -1.1170    2.5579 H       1  UNL1        0.0000
     24 H           0.8477   -0.5242    0.6242 H       1  UNL1        0.0000
     25 H           2.0551    1.6483    0.5978 H       1  UNL1        0.0000
     26 H           1.8022    3.2283    2.4915 H       1  UNL1        0.0000
     27 H           2.0048    2.3682    6.4355 H       1  UNL1        0.0000
     28 H           0.8049    1.8092    7.6266 H       1  UNL1        0.0000
     29 H           1.1543    0.8245    6.1842 H       1  UNL1        0.0000
     30 H          -2.6910    3.0676    4.0158 H       1  UNL1        0.0000
     31 H          -3.4640    4.6319    3.8977 H       1  UNL1        0.0000
     32 H          -3.9556    3.3330    2.8281 H       1  UNL1        0.0000
     33 H          -1.6151    6.2196    0.3922 H       1  UNL1        0.0000
     34 H          -3.2822    5.7006    0.5375 H       1  UNL1        0.0000
     35 H          -2.5678    6.7198    1.7716 H       1  UNL1        0.0000
     36 H          -0.5746    3.1008    0.2193 H       1  UNL1        0.0000
     37 H          -1.3999    1.9677    1.2781 H       1  UNL1        0.0000
     38 H          -2.3051    2.8690    0.0847 H       1  UNL1        0.0000
     39 H          -2.8481    4.9401    6.3460 H       1  UNL1        0.0000
     40 H          -1.8283    3.8245    7.2344 H       1  UNL1        0.0000
     41 H          -2.0274    5.4742    7.7980 H       1  UNL1        0.0000
     42 H          -1.6414    7.1258    4.5173 H       1  UNL1        0.0000
     43 H          -0.9629    7.8484    5.9612 H       1  UNL1        0.0000
     44 H           0.0654    7.5073    4.5877 H       1  UNL1        0.0000
     45 H           2.0516    5.5991    6.3620 H       1  UNL1        0.0000
     46 H           1.1091    6.3369    7.6414 H       1  UNL1        0.0000
     47 H           1.2739    4.5954    7.5718 H       1  UNL1        0.0000
@<TRIPOS>BOND
     1    38    12    1
     2    36    12    1
     3    33    11    1
     4    34    11    1
     5    25    20    1
     6    24    19    1
     7    12    37    1
     8    12     9    1
     9    11    35    1
    10    11     9    1
    11    20    19    2
    12    20    21    1
    13    19    18    1
    14     8     7    2
    15     9     6    1
    16     9    10    1
    17    26    21    1
    18     7     6    2
    19    21     1    1
    20    23    18    1
    21    18    17    2
    22    32    10    1
    23     6     5    1
    24    10    31    1
    25    10    30    1
    26     1    17    1
    27     1     2    1
    28    17    22    1
    29     5     2    2
    30     5    13    1
    31    42    15    1
    32    44    15    1
    33     2     3    1
    34    15    13    1
    35    15    43    1
    36    13    14    1
    37    13    16    1
    38     3     4    1
    39    29     4    1
    40    39    14    1
    41    45    16    1
    42    27     4    1
    43     4    28    1
    44    14    40    1
    45    14    41    1
    46    16    47    1
    47    16    46    1
