@<TRIPOS>MOLECULE
3,4,5,6,7,8
 36 36 0 0 0
SMALL
GASTEIGER

@<TRIPOS>ATOM
      1 SI          2.2801   16.5431    2.7811 Si      1  UNL1        0.0000
      2 SI          6.4882   17.9707    7.7003 Si      1  UNL1        0.0000
      3 C           5.2306   17.4000    6.4138 C.2     1  UNL1        0.0000
      4 C           3.9661   18.0402    6.3225 C.3     1  UNL1        0.0000
      5 C           3.1073   17.8095    5.2410 C.2     1  UNL1        0.0000
      6 C           3.4111   16.8299    4.2748 C.2     1  UNL1        0.0000
      7 C           4.6297   16.1408    4.3986 C.3     1  UNL1        0.0000
      8 C           5.5195   16.4309    5.4489 C.2     1  UNL1        0.0000
      9 C           7.8929   16.6909    7.8703 C.3     1  UNL1        0.0000
     10 C           7.2356   19.6161    7.0667 C.3     1  UNL1        0.0000
     11 C           5.6107   18.2799    9.3688 C.3     1  UNL1        0.0000
     12 C           3.0789   17.4439    1.2937 C.3     1  UNL1        0.0000
     13 C           0.5467   17.2485    3.1330 C.3     1  UNL1        0.0000
     14 C           2.1579   14.6745    2.4272 C.3     1  UNL1        0.0000
     15 H           3.7329   18.8359    7.0227 H       1  UNL1        0.0000
     16 H           2.2094   18.4066    5.1346 H       1  UNL1        0.0000
     17 H           4.9343   15.4438    3.6257 H       1  UNL1        0.0000
     18 H           6.4952   15.9540    5.4516 H       1  UNL1        0.0000
     19 H           8.4760   16.6173    6.9569 H       1  UNL1        0.0000
     20 H           7.5165   15.7014    8.1100 H       1  UNL1        0.0000
     21 H           8.5743   16.9815    8.6636 H       1  UNL1        0.0000
     22 H           7.7610   19.4842    6.1249 H       1  UNL1        0.0000
     23 H           7.9453   20.0166    7.7842 H       1  UNL1        0.0000
     24 H           6.4682   20.3689    6.9101 H       1  UNL1        0.0000
     25 H           4.6759   17.7332    9.4492 H       1  UNL1        0.0000
     26 H           5.3807   19.3340    9.4949 H       1  UNL1        0.0000
     27 H           6.2381   17.9851   10.2041 H       1  UNL1        0.0000
     28 H           3.1716   18.5112    1.4723 H       1  UNL1        0.0000
     29 H           2.4768   17.3123    0.4004 H       1  UNL1        0.0000
     30 H           4.0719   17.0599    1.0794 H       1  UNL1        0.0000
     31 H          -0.1403   16.9920    2.3327 H       1  UNL1        0.0000
     32 H           0.5531   18.3311    3.2184 H       1  UNL1        0.0000
     33 H           0.1434   16.8410    4.0551 H       1  UNL1        0.0000
     34 H           3.1234   14.2445    2.1792 H       1  UNL1        0.0000
     35 H           1.4904   14.4817    1.5932 H       1  UNL1        0.0000
     36 H           1.7671   14.1463    3.2917 H       1  UNL1        0.0000
@<TRIPOS>BOND
     1    29    12    1
     2    30    12    1
     3    12    28    1
     4    12     1    1
     5    35    14    1
     6    34    14    1
     7    31    13    1
     8    14     1    1
     9    14    36    1
    10     1    13    1
    11     1     6    1
    12    13    32    1
    13    13    33    1
    14    17     7    1
    15     6     7    1
    16     6     5    2
    17     7     8    1
    18    16     5    1
    19     5     4    1
    20     8    18    1
    21     8     3    2
    22    22    10    1
    23     4     3    1
    24     4    15    1
    25     3     2    1
    26    24    10    1
    27    19     9    1
    28    10     2    1
    29    10    23    1
    30     2     9    1
    31     2    11    1
    32     9    20    1
    33     9    21    1
    34    11    25    1
    35    11    26    1
    36    11    27    1
