@<TRIPOS>MOLECULE
1,2,3,4,5,6
 15 15 0 0 0
SMALL
GASTEIGER

@<TRIPOS>ATOM
      1 C           3.8222    1.5251    3.6254 C.2     1  UNL1       -0.0683
      2 C           4.2026    2.6052    4.4498 C.3     1  UNL1        0.0078
      3 C           4.0784    3.9269    4.0145 C.2     1  UNL1       -0.0794
      4 C           3.6965    4.1750    2.6934 C.2     1  UNL1       -0.0796
      5 C           3.3127    3.1096    1.8637 C.3     1  UNL1        0.0051
      6 C           3.3150    1.7951    2.3481 C.2     1  UNL1       -0.0768
      7 C           3.9772    0.1353    4.1432 C.3     1  UNL1       -0.0432
      8 H           4.5777    2.3972    5.4393 H       1  UNL1        0.0397
      9 H           4.3274    4.7436    4.6740 H       1  UNL1        0.0575
     10 H           3.6845    5.1825    2.3121 H       1  UNL1        0.0575
     11 H           3.0027    3.3099    0.8515 H       1  UNL1        0.0394
     12 H           2.9780    0.9859    1.7180 H       1  UNL1        0.0578
     13 H           3.3199   -0.0308    4.9962 H       1  UNL1        0.0275
     14 H           3.7591   -0.6015    3.3770 H       1  UNL1        0.0275
     15 H           5.0043   -0.0041    4.4733 H       1  UNL1        0.0275
@<TRIPOS>BOND
     1    11     5    1
     2    12     6    1
     3     5     6    1
     4     5     4    1
     5    10     4    1
     6     6     1    2
     7     4     3    2
     8    14     7    1
     9     1     7    1
    10     1     2    1
    11     3     2    1
    12     3     9    1
    13     7    15    1
    14     7    13    1
    15     2     8    1
