@<TRIPOS>MOLECULE
1,2,3,4,5,6
 30 30 0 0 0
SMALL
GASTEIGER

@<TRIPOS>ATOM
      1 C           1.9642   -0.6230    8.4104 C.3     1  UNL1        0.0225
      2 C           2.4565    0.5940    8.9441 C.2     1  UNL1       -0.0618
      3 C           2.4149    1.7686    8.1583 C.2     1  UNL1       -0.0618
      4 C           1.8271    1.7365    6.8695 C.3     1  UNL1        0.0225
      5 C           1.1988    0.5515    6.4130 C.2     1  UNL1       -0.0618
      6 C           1.2278   -0.6199    7.2011 C.2     1  UNL1       -0.0618
      7 C           2.0985   -1.8999    9.1954 C.3     1  UNL1       -0.0510
      8 C           2.8969    0.6640   10.3782 C.3     1  UNL1       -0.0427
      9 C           2.9001    3.0647    8.7396 C.3     1  UNL1       -0.0427
     10 C           1.6828    2.9800    6.0423 C.3     1  UNL1       -0.0510
     11 C           0.3967    0.5741    5.1465 C.3     1  UNL1       -0.0427
     12 C           0.3813   -1.8008    6.8248 C.3     1  UNL1       -0.0427
     13 H           1.2644   -2.0296    9.8859 H       1  UNL1        0.0242
     14 H           2.1295   -2.7516    8.5229 H       1  UNL1        0.0242
     15 H           3.0239   -1.8989    9.7630 H       1  UNL1        0.0242
     16 H           2.5550   -0.1993   10.9378 H       1  UNL1        0.0275
     17 H           3.9813    0.7180   10.4492 H       1  UNL1        0.0275
     18 H           2.4800    1.5503   10.8507 H       1  UNL1        0.0275
     19 H           3.5863    2.8948    9.5600 H       1  UNL1        0.0275
     20 H           2.0526    3.6480    9.1016 H       1  UNL1        0.0275
     21 H           3.4303    3.6508    7.9967 H       1  UNL1        0.0275
     22 H           2.1711    2.8491    5.0790 H       1  UNL1        0.0242
     23 H           2.1204    3.8459    6.5210 H       1  UNL1        0.0242
     24 H           0.6281    3.1861    5.8646 H       1  UNL1        0.0242
     25 H          -0.6229    0.8974    5.3625 H       1  UNL1        0.0275
     26 H           0.8245    1.2598    4.4244 H       1  UNL1        0.0275
     27 H           0.3617   -0.4088    4.6903 H       1  UNL1        0.0275
     28 H          -0.5684   -1.4620    6.4188 H       1  UNL1        0.0275
     29 H           0.8737   -2.4082    6.0686 H       1  UNL1        0.0275
     30 H           0.1710   -2.4224    7.6885 H       1  UNL1        0.0275
@<TRIPOS>BOND
     1    26    11    1
     2    27    11    1
     3    22    10    1
     4    11    25    1
     5    11     5    1
     6    24    10    1
     7    10    23    1
     8    10     4    1
     9    29    12    1
    10     5     4    1
    11     5     6    2
    12    28    12    1
    13    12     6    1
    14    12    30    1
    15     4     3    1
    16     6     1    1
    17    21     9    1
    18     3     9    1
    19     3     2    2
    20     1     2    1
    21     1     7    1
    22    14     7    1
    23     9    20    1
    24     9    19    1
    25     2     8    1
    26     7    15    1
    27     7    13    1
    28     8    17    1
    29     8    18    1
    30     8    16    1
