@<TRIPOS>MOLECULE
5,6,8,10,11,17
 24 24 0 0 0
SMALL
GASTEIGER

@<TRIPOS>ATOM
      1 C           8.7894    4.9123    1.4156 C.3     1  UNL1       -0.0432
      2 H           8.2997    5.5421    0.6710 H       1  UNL1        0.0275
      3 H           8.0328    4.5326    2.1001 H       1  UNL1        0.0275
      4 H           9.2442    4.0702    0.8924 H       1  UNL1        0.0275
      5 C           9.8418    5.6901    2.1491 C.2     1  UNL1       -0.0684
      6 C           9.8271    5.8270    3.5343 C.2     1  UNL1       -0.0625
      7 H           9.0471    5.3567    4.1189 H       1  UNL1        0.0617
      8 C          10.8489    6.5503    4.2015 C.2     1  UNL1       -0.0620
      9 H          10.8051    6.6165    5.2821 H       1  UNL1        0.0617
     10 C          11.9908    7.0140    3.5109 C.2     1  UNL1       -0.0627
     11 C          12.0088    6.8583    2.0926 C.3     1  UNL1       -0.0052
     12 H          12.8926    7.1509    1.5322 H       1  UNL1        0.0358
     13 C          12.9000    8.2296    5.5422 C.3     1  UNL1       -0.0589
     14 H          13.7749    8.7736    5.8896 H       1  UNL1        0.0235
     15 H          12.6257    7.5122    6.3123 H       1  UNL1        0.0235
     16 H          12.0784    8.9337    5.4202 H       1  UNL1        0.0235
     17 C          10.9205    6.2722    1.4201 C.3     1  UNL1       -0.0057
     18 H          10.9747    6.1192    0.3451 H       1  UNL1        0.0357
     19 C          14.1728    6.3469    4.4576 C.3     1  UNL1       -0.0589
     20 H          14.4438    5.8755    3.5148 H       1  UNL1        0.0235
     21 H          13.7003    5.6003    5.0934 H       1  UNL1        0.0235
     22 H          15.0810    6.6910    4.9461 H       1  UNL1        0.0235
     23 C          13.2201    7.5270    4.2233 C.3     1  UNL1       -0.0250
     24 H          13.7155    8.2442    3.5587 H       1  UNL1        0.0340
@<TRIPOS>BOND
     1    18    17    1
     2     2     1    1
     3     4     1    1
     4     1     3    1
     5     1     5    1
     6    17    11    1
     7    17     5    1
     8    12    11    1
     9    11    10    1
    10     5     6    2
    11    10     8    2
    12    10    23    1
    13    20    19    1
    14     6     7    1
    15     6     8    1
    16    24    23    1
    17     8     9    1
    18    23    19    1
    19    23    13    1
    20    19    22    1
    21    19    21    1
    22    16    13    1
    23    13    14    1
    24    13    15    1
