@<TRIPOS>MOLECULE
2,13,15,20,22,32
 33 34 0 0 0
SMALL
GASTEIGER

@<TRIPOS>ATOM
      1 SI          1.9789    9.8727    3.5959 Si      1  UNL1        0.0000
      2 C           1.8809    9.0710    1.8787 C.3     1  UNL1        0.0000
      3 C          -0.2013    6.9457    6.1735 C.ar    1  UNL1        0.0000
      4 C           0.5273    7.8766    5.3990 C.1     1  UNL1        0.0000
      5 C           1.0193   11.5135    3.5454 C.3     1  UNL1        0.0000
      6 H           0.0440   11.3739    3.0858 H       1  UNL1        0.0000
      7 H           1.5480   12.2782    2.9834 H       1  UNL1        0.0000
      8 H           0.8625   11.8982    4.5478 H       1  UNL1        0.0000
      9 C           3.8096   10.1083    4.0777 C.3     1  UNL1        0.0000
     10 H           3.8829   10.5576    5.0627 H       1  UNL1        0.0000
     11 H           4.3297   10.7585    3.3795 H       1  UNL1        0.0000
     12 H           4.3417    9.1619    4.1079 H       1  UNL1        0.0000
     13 C           1.9727    9.8385    0.7103 C.3     1  UNL1        0.0000
     14 H           2.2037   10.8962    0.7816 H       1  UNL1        0.0000
     15 C           1.6568    7.6841    1.7378 C.3     1  UNL1        0.0000
     16 H           1.6372    7.0660    2.6290 H       1  UNL1        0.0000
     17 C          -1.4980    6.6003    5.7879 C.ar    1  UNL1        0.0000
     18 H          -1.9266    7.0537    4.9070 H       1  UNL1        0.0000
     19 C           1.1419    8.6712    4.7242 C.1     1  UNL1        0.0000
     20 C           1.6533    7.8796   -0.6763 C.2     1  UNL1        0.0000
     21 H           1.6334    7.4099   -1.6534 H       1  UNL1        0.0000
     22 C           1.5623    7.0847    0.4814 C.3     1  UNL1        0.0000
     23 H           1.4688    6.0089    0.3917 H       1  UNL1        0.0000
     24 C          -2.2142    5.6875    6.5378 C.ar    1  UNL1        0.0000
     25 H          -3.2175    5.4212    6.2404 H       1  UNL1        0.0000
     26 C           0.3631    6.3680    7.3114 C.ar    1  UNL1        0.0000
     27 H           1.3668    6.6404    7.6041 H       1  UNL1        0.0000
     28 C          -0.3643    5.4565    8.0521 C.ar    1  UNL1        0.0000
     29 H           0.0730    5.0099    8.9333 H       1  UNL1        0.0000
     30 C          -1.6515    5.1147    7.6680 C.ar    1  UNL1        0.0000
     31 H          -2.2161    4.4018    8.2508 H       1  UNL1        0.0000
     32 C           1.8889    9.2500   -0.5653 C.2     1  UNL1        0.0000
     33 H           2.0476    9.8509   -1.4532 H       1  UNL1        0.0000
@<TRIPOS>BOND
     1    21    20    1
     2    33    32    1
     3    20    32    2
     4    20    22    1
     5    32    13    1
     6    23    22    1
     7    22    15    1
     8    13    14    1
     9    13     2    1
    10    15     2    1
    11    15    16    1
    12     2     1    1
    13     7     5    1
    14     6     5    1
    15    11     9    1
    16     5     1    1
    17     5     8    1
    18     1     9    1
    19     1    19    1
    20     9    12    1
    21     9    10    1
    22    19     4    3
    23    18    17    1
    24     4     3    1
    25    17     3   ar
    26    17    24   ar
    27     3    26   ar
    28    25    24    1
    29    24    30   ar
    30    26    27    1
    31    26    28   ar
    32    30    28   ar
    33    30    31    1
    34    28    29    1
