@<TRIPOS>MOLECULE
2,4,6,8,10,12
 33 34 0 0 0
SMALL
GASTEIGER

@<TRIPOS>ATOM
      1 SI          0.9545    5.8232    2.0812 Si      1  UNL1        0.0000
      2 C           3.0635    5.3376    3.9766 C.3     1  UNL1        0.0000
      3 H           3.7248    5.6066    3.1571 H       1  UNL1        0.0000
      4 C           3.6311    5.0537    5.2419 C.2     1  UNL1        0.0000
      5 H           4.7076    5.1075    5.3780 H       1  UNL1        0.0000
      6 C           2.7961    4.7819    6.3242 C.2     1  UNL1        0.0000
      7 H           3.2172    4.6180    7.3124 H       1  UNL1        0.0000
      8 C           1.3908    4.8425    6.1654 C.3     1  UNL1        0.0000
      9 H           0.7458    4.7321    7.0325 H       1  UNL1        0.0000
     10 C           0.8507    5.1330    4.9123 C.3     1  UNL1        0.0000
     11 H          -0.2255    5.2443    4.8118 H       1  UNL1        0.0000
     12 C           1.6779    5.3980    3.7900 C.3     1  UNL1        0.0000
     13 C           1.9309    4.8689    0.7580 C.3     1  UNL1        0.0000
     14 H           1.9887    3.8097    1.0024 H       1  UNL1        0.0000
     15 H           2.9459    5.2427    0.6606 H       1  UNL1        0.0000
     16 H           1.4565    4.9625   -0.2135 H       1  UNL1        0.0000
     17 C          -0.8961    5.3944    2.0258 C.3     1  UNL1        0.0000
     18 H          -1.4772    6.0104    2.7058 H       1  UNL1        0.0000
     19 H          -1.0687    4.3518    2.2799 H       1  UNL1        0.0000
     20 H          -1.2877    5.5586    1.0272 H       1  UNL1        0.0000
     21 C           1.2069    7.6538    1.9266 C.1     1  UNL1        0.0000
     22 C           1.3653    8.8491    1.8194 C.1     1  UNL1        0.0000
     23 C           1.5487   10.2456    1.6940 C.ar    1  UNL1        0.0000
     24 C           1.9262   11.0080    2.8005 C.ar    1  UNL1        0.0000
     25 H           2.0782   10.5214    3.7531 H       1  UNL1        0.0000
     26 C           2.1010   12.3721    2.6705 C.ar    1  UNL1        0.0000
     27 H           2.3927   12.9599    3.5286 H       1  UNL1        0.0000
     28 C           1.9030   12.9876    1.4445 C.ar    1  UNL1        0.0000
     29 H           2.0403   14.0543    1.3477 H       1  UNL1        0.0000
     30 C           1.5286   12.2341    0.3429 C.ar    1  UNL1        0.0000
     31 H           1.3744   12.7144   -0.6122 H       1  UNL1        0.0000
     32 C           1.3508   10.8693    0.4610 C.ar    1  UNL1        0.0000
     33 H           1.0589   10.2746   -0.3920 H       1  UNL1        0.0000
@<TRIPOS>BOND
     1    31    30    1
     2    33    32    1
     3    16    13    1
     4    30    32   ar
     5    30    28   ar
     6    32    23   ar
     7    15    13    1
     8    13    14    1
     9    13     1    1
    10    20    17    1
    11    29    28    1
    12    28    26   ar
    13    23    22    1
    14    23    24   ar
    15    22    21    3
    16    21     1    1
    17    17     1    1
    18    17    19    1
    19    17    18    1
    20     1    12    1
    21    26    24   ar
    22    26    27    1
    23    24    25    1
    24     3     2    1
    25    12     2    1
    26    12    10    1
    27     2     4    1
    28    11    10    1
    29    10     8    1
    30     4     5    1
    31     4     6    2
    32     8     6    1
    33     8     9    1
    34     6     7    1
