@<TRIPOS>MOLECULE
7,8,10,12,14,16
 32 33 0 0 0
SMALL
GASTEIGER

@<TRIPOS>ATOM
      1 SI         13.2707   -0.6672    9.1869 Si      1  UNL1        0.0000
      2 C          13.0628   -2.1387   10.4408 C.3     1  UNL1        0.0000
      3 O          14.0610   -1.8577   11.4505 O.3     1  UNL1        0.0000
      4 C          13.5223   -1.9667   12.7537 C.3     1  UNL1        0.0000
      5 H          13.7943   -1.0681   13.3215 H       1  UNL1        0.0000
      6 H          13.9492   -2.8428   13.2717 H       1  UNL1        0.0000
      7 C          12.0418   -2.1174   12.5711 C.2     1  UNL1        0.0000
      8 C          11.0450   -2.3548   13.5266 C.3     1  UNL1        0.0000
      9 H          11.2844   -2.3917   14.5822 H       1  UNL1        0.0000
     10 C           9.7532   -2.6484   13.0689 C.3     1  UNL1        0.0000
     11 H           8.9829   -2.9165   13.7827 H       1  UNL1        0.0000
     12 C           9.4713   -2.7164   11.6924 C.2     1  UNL1        0.0000
     13 H           8.4874   -3.0264   11.3620 H       1  UNL1        0.0000
     14 C          10.4733   -2.4474   10.7490 C.2     1  UNL1        0.0000
     15 H          10.2746   -2.5734    9.6917 H       1  UNL1        0.0000
     16 C          11.7773   -2.1926   11.1984 C.2     1  UNL1        0.0000
     17 C          13.3335   -3.5133    9.8147 C.3     1  UNL1        0.0000
     18 H          14.3478   -3.5417    9.4299 H       1  UNL1        0.0000
     19 H          12.6394   -3.6947    8.9980 H       1  UNL1        0.0000
     20 H          13.2229   -4.3067   10.5549 H       1  UNL1        0.0000
     21 C          14.9170   -0.9767    8.2763 C.3     1  UNL1        0.0000
     22 H          15.2141   -0.0917    7.7230 H       1  UNL1        0.0000
     23 H          14.8456   -1.7951    7.5664 H       1  UNL1        0.0000
     24 H          15.7120   -1.2091    8.9777 H       1  UNL1        0.0000
     25 C          11.8208   -0.6581    7.9454 C.3     1  UNL1        0.0000
     26 H          10.8942   -0.3453    8.4170 H       1  UNL1        0.0000
     27 H          11.6569   -1.6269    7.4818 H       1  UNL1        0.0000
     28 H          12.0260    0.0478    7.1477 H       1  UNL1        0.0000
     29 C          13.3552    0.9452   10.1826 C.3     1  UNL1        0.0000
     30 H          13.5038    1.7942    9.5236 H       1  UNL1        0.0000
     31 H          14.1797    0.9266   10.8882 H       1  UNL1        0.0000
     32 H          12.4397    1.1195   10.7429 H       1  UNL1        0.0000
@<TRIPOS>BOND
     1    28    25    1
     2    27    25    1
     3    23    21    1
     4    22    21    1
     5    25    26    1
     6    25     1    1
     7    21    24    1
     8    21     1    1
     9    19    17    1
    10     1    29    1
    11     1     2    1
    12    18    17    1
    13    30    29    1
    14    15    14    1
    15    17     2    1
    16    17    20    1
    17    29    32    1
    18    29    31    1
    19     2    16    1
    20     2     3    1
    21    14    16    1
    22    14    12    2
    23    16     7    2
    24    13    12    1
    25     3     4    1
    26    12    10    1
    27     7     4    1
    28     7     8    1
    29     4     6    1
    30     4     5    1
    31    10     8    1
    32    10    11    1
    33     8     9    1
