@<TRIPOS>MOLECULE
8,9,11,13,15,17
 41 42 0 0 0
SMALL
GASTEIGER

@<TRIPOS>ATOM
      1 SI          4.6248    5.9523    3.0454 Si      1  UNL1        0.0000
      2 SI          2.0563    3.8562    3.6607 Si      1  UNL1        0.0000
      3 C           3.9643    4.2045    3.5882 C.3     1  UNL1        0.0000
      4 O           4.3821    4.1013    4.9877 O.3     1  UNL1        0.0000
      5 C           5.4345    3.1704    5.1392 C.3     1  UNL1        0.0000
      6 H           6.3318    3.6841    5.5226 H       1  UNL1        0.0000
      7 H           5.1398    2.4089    5.8759 H       1  UNL1        0.0000
      8 C           5.6685    2.5889    3.7770 C.2     1  UNL1        0.0000
      9 C           6.7102    1.7638    3.3309 C.2     1  UNL1        0.0000
     10 H           7.4680    1.4080    4.0183 H       1  UNL1        0.0000
     11 C           6.8069    1.5078    1.9582 C.2     1  UNL1        0.0000
     12 H           7.6512    0.9465    1.5758 H       1  UNL1        0.0000
     13 C           5.8689    2.0467    1.0584 C.3     1  UNL1        0.0000
     14 H           5.9985    1.8892   -0.0056 H       1  UNL1        0.0000
     15 C           4.8148    2.8460    1.5228 C.3     1  UNL1        0.0000
     16 H           4.1455    3.3282    0.8220 H       1  UNL1        0.0000
     17 C           4.7596    3.1754    2.8880 C.2     1  UNL1        0.0000
     18 C           4.2950    7.2040    4.4373 C.3     1  UNL1        0.0000
     19 H           4.3648    6.7299    5.4103 H       1  UNL1        0.0000
     20 H           5.0182    8.0135    4.4061 H       1  UNL1        0.0000
     21 H           3.3078    7.6446    4.3532 H       1  UNL1        0.0000
     22 C           6.5133    5.7818    2.7855 C.3     1  UNL1        0.0000
     23 H           7.0115    5.4587    3.6952 H       1  UNL1        0.0000
     24 H           6.7568    5.0651    2.0049 H       1  UNL1        0.0000
     25 H           6.9511    6.7335    2.4988 H       1  UNL1        0.0000
     26 C           3.8325    6.5188    1.4063 C.3     1  UNL1        0.0000
     27 H           2.7519    6.5731    1.4827 H       1  UNL1        0.0000
     28 H           4.1907    7.5097    1.1473 H       1  UNL1        0.0000
     29 H           4.0748    5.8629    0.5764 H       1  UNL1        0.0000
     30 C           1.2320    5.3920    4.4281 C.3     1  UNL1        0.0000
     31 H           1.2562    6.2450    3.7580 H       1  UNL1        0.0000
     32 H           0.1914    5.1854    4.6567 H       1  UNL1        0.0000
     33 H           1.7222    5.6785    5.3518 H       1  UNL1        0.0000
     34 C           1.3700    3.5592    1.9065 C.3     1  UNL1        0.0000
     35 H           1.6537    4.3383    1.2061 H       1  UNL1        0.0000
     36 H           1.7012    2.6067    1.5057 H       1  UNL1        0.0000
     37 H           0.2859    3.5319    1.9368 H       1  UNL1        0.0000
     38 C           1.7875    2.3478    4.7824 C.3     1  UNL1        0.0000
     39 H           2.0988    2.5579    5.8011 H       1  UNL1        0.0000
     40 H           0.7392    2.0676    4.8090 H       1  UNL1        0.0000
     41 H           2.3476    1.4838    4.4308 H       1  UNL1        0.0000
@<TRIPOS>BOND
     1    14    13    1
     2    29    26    1
     3    16    15    1
     4    13    15    1
     5    13    11    1
     6    28    26    1
     7    35    34    1
     8    26    27    1
     9    26     1    1
    10    36    34    1
    11    15    17    1
    12    12    11    1
    13    34    37    1
    14    34     2    1
    15    11     9    2
    16    24    22    1
    17    25    22    1
    18    22     1    1
    19    22    23    1
    20    17     3    1
    21    17     8    2
    22     1     3    1
    23     1    18    1
    24     9     8    1
    25     9    10    1
    26     3     2    1
    27     3     4    1
    28     2    30    1
    29     2    38    1
    30    31    30    1
    31     8     5    1
    32    21    18    1
    33    20    18    1
    34    30    32    1
    35    30    33    1
    36    41    38    1
    37    18    19    1
    38    38    40    1
    39    38    39    1
    40     4     5    1
    41     5     6    1
    42     5     7    1
