@<TRIPOS>MOLECULE
3,12,13,15,25,26
 46 54 0 0 0
SMALL
GASTEIGER

@<TRIPOS>ATOM
      1 SI          5.2840   16.2911    2.8557 Si      1  UNL1        0.0000
      2 C           5.0179   15.1512    4.3596 C.3     1  UNL1        0.0000
      3 C           5.5116   13.6000    4.1988 C.3     1  UNL1        0.0000
      4 C           6.4714   17.7233    3.2936 C.3     1  UNL1        0.0000
      5 H           6.7427   18.2797    2.4020 H       1  UNL1        0.0000
      6 H           7.3876   17.3740    3.7583 H       1  UNL1        0.0000
      7 H           6.0030   18.4184    3.9821 H       1  UNL1        0.0000
      8 C           3.6314   17.0516    2.2714 C.3     1  UNL1        0.0000
      9 H           3.7032   17.3838    1.2406 H       1  UNL1        0.0000
     10 H           3.3779   17.9158    2.8766 H       1  UNL1        0.0000
     11 H           2.8026   16.3553    2.3407 H       1  UNL1        0.0000
     12 C           6.0854   15.1528    1.6058 C.3     1  UNL1        0.0000
     13 C           7.4937   15.0412    1.3921 C.2     1  UNL1        0.0000
     14 H           8.2414   15.6217    1.9219 H       1  UNL1        0.0000
     15 C           7.7597   14.1640    0.3429 C.2     1  UNL1        0.0000
     16 H           8.7317   13.9463   -0.0794 H       1  UNL1        0.0000
     17 C           6.1852   12.8288   -1.2192 C.ar    1  UNL1        0.0000
     18 H           6.9705   12.3481   -1.7882 H       1  UNL1        0.0000
     19 C           4.8617   12.6251   -1.5258 C.ar    1  UNL1        0.0000
     20 H           4.5935   11.9667   -2.3387 H       1  UNL1        0.0000
     21 C           3.8407   13.2656   -0.8056 C.ar    1  UNL1        0.0000
     22 H           2.8135   13.0910   -1.0894 H       1  UNL1        0.0000
     23 C           4.1216   14.1037    0.2478 C.ar    1  UNL1        0.0000
     24 H           3.3212   14.6015    0.7779 H       1  UNL1        0.0000
     25 C           5.4640   14.3311    0.6011 C.ar    1  UNL1        0.0000
     26 C           6.5122   13.6967   -0.1635 C.ar    1  UNL1        0.0000
     27 B           6.4058   14.6585    5.2147 B       1  UNL1        0.0000
     28 H           7.4606   15.0072    4.8000 H       1  UNL1        0.0000
     29 B           5.2161   15.7336    5.9586 B       1  UNL1        0.0000
     30 H           5.4872   16.8702    6.0925 H       1  UNL1        0.0000
     31 B           3.6248   15.2915    5.3432 B       1  UNL1        0.0000
     32 H           2.8541   16.1391    5.0760 H       1  UNL1        0.0000
     33 B           3.8306   13.9400    4.2172 B       1  UNL1        0.0000
     34 H           3.2665   13.8331    3.1819 H       1  UNL1        0.0000
     35 B           6.0546   13.0193    5.7356 B       1  UNL1        0.0000
     36 H           6.9335   12.2271    5.7287 H       1  UNL1        0.0000
     37 B           5.8757   14.3684    6.8767 B       1  UNL1        0.0000
     38 H           6.6050   14.5180    7.7874 H       1  UNL1        0.0000
     39 B           4.1281   14.7568    6.9564 B       1  UNL1        0.0000
     40 H           3.6305   15.1892    7.9315 H       1  UNL1        0.0000
     41 B           3.2486   13.6431    5.8644 B       1  UNL1        0.0000
     42 H           2.1470   13.2824    6.0677 H       1  UNL1        0.0000
     43 B           4.4609   12.5818    5.1268 B       1  UNL1        0.0000
     44 H           4.2493   11.4920    4.7206 H       1  UNL1        0.0000
     45 B           4.6498   13.0636    6.8227 B       1  UNL1        0.0000
     46 H           4.5251   12.2873    7.6983 H       1  UNL1        0.0000
@<TRIPOS>BOND
     1    20    19    1
     2    18    17    1
     3    19    17   ar
     4    19    21   ar
     5    17    26   ar
     6    22    21    1
     7    21    23   ar
     8    26    15    1
     9    26    25   ar
    10    16    15    1
    11    23    25   ar
    12    23    24    1
    13    15    13    2
    14    25    12    1
    15     9     8    1
    16    13    12    1
    17    13    14    1
    18    12     1    1
    19     8    11    1
    20     8     1    1
    21     8    10    1
    22     5     4    1
    23     1     4    1
    24    34    33    1
    25     4     6    1
    26     4     7    1
    27     3    33    1
    28     3     2    1
    29     3    27    1
    30     3    35    1
    31    33     2    1
    32    33    43    1
    33     2    27    1
    34     2    31    1
    35    44    43    1
    36    28    27    1
    37    32    31    1
    38    43    35    1
    39    43    41    1
    40    27    35    1
    41    31    41    1
    42    31    29    1
    43    36    35    1
    44    41    42    1
    45    41    39    1
    46    29    30    1
    47    29    37    1
    48    29    39    1
    49    45    37    1
    50    45    39    1
    51    45    46    1
    52    37    38    1
    53    39    40    1
    54     1     2    0
