@<TRIPOS>MOLECULE
1,2,3,4,5,14
 56 57 0 0 0
SMALL
GASTEIGER

@<TRIPOS>ATOM
      1 C           6.3563    5.8089    4.5451 C.3     1  UNL1        0.0000
      2 C           5.2651    5.0581    4.0796 C.3     1  UNL1        0.0000
      3 C           4.0299    5.0763    4.7954 C.3     1  UNL1        0.0000
      4 C           3.9635    5.7259    6.0291 C.3     1  UNL1        0.0000
      5 C           5.0698    6.4928    6.5328 C.ar    1  UNL1        0.0000
      6 C           5.0210    7.1684    7.7708 C.ar    1  UNL1        0.0000
      7 H           4.1486    7.0438    8.3957 H       1  UNL1        0.0000
      8 C           6.0649    7.9542    8.1821 C.ar    1  UNL1        0.0000
      9 H           6.0177    8.4606    9.1338 H       1  UNL1        0.0000
     10 C           7.1915    8.1173    7.3643 C.ar    1  UNL1        0.0000
     11 H           7.9875    8.7738    7.6807 H       1  UNL1        0.0000
     12 C           7.2896    7.4458    6.1759 C.ar    1  UNL1        0.0000
     13 H           8.1485    7.5716    5.5370 H       1  UNL1        0.0000
     14 C           6.2591    6.5801    5.7490 C.ar    1  UNL1        0.0000
     15 O           7.4739    5.9168    3.7904 O.3     1  UNL1        0.0000
     16 SI          8.9351    5.1453    3.7883 Si      1  UNL1        0.0000
     17 C           8.7178    3.2538    3.7596 C.3     1  UNL1        0.0000
     18 H           8.4601    2.8672    2.7778 H       1  UNL1        0.0000
     19 H           7.9334    2.9519    4.4515 H       1  UNL1        0.0000
     20 H           9.6282    2.7535    4.0710 H       1  UNL1        0.0000
     21 C          10.0162    5.6010    5.2924 C.3     1  UNL1        0.0000
     22 H          10.3285    6.6419    5.2899 H       1  UNL1        0.0000
     23 H          10.9181    4.9977    5.3037 H       1  UNL1        0.0000
     24 H           9.4967    5.4135    6.2271 H       1  UNL1        0.0000
     25 C           9.7027    5.8367    2.1644 C.3     1  UNL1        0.0000
     26 C           8.8970    5.4129    0.9341 C.3     1  UNL1        0.0000
     27 H           7.8783    5.7850    0.9955 H       1  UNL1        0.0000
     28 H           8.8666    4.3299    0.8423 H       1  UNL1        0.0000
     29 H           9.3514    5.8146    0.0286 H       1  UNL1        0.0000
     30 C           9.7633    7.3659    2.1964 C.3     1  UNL1        0.0000
     31 H           8.7680    7.7860    2.3193 H       1  UNL1        0.0000
     32 H          10.1841    7.7489    1.2670 H       1  UNL1        0.0000
     33 H          10.3880    7.7125    3.0162 H       1  UNL1        0.0000
     34 C          11.1237    5.2921    2.0231 C.3     1  UNL1        0.0000
     35 H          11.7425    5.6035    2.8602 H       1  UNL1        0.0000
     36 H          11.5832    5.6589    1.1058 H       1  UNL1        0.0000
     37 H          11.1181    4.2058    1.9903 H       1  UNL1        0.0000
     38 C           5.3646    4.4173    2.7186 C.3     1  UNL1        0.0000
     39 H           4.7392    3.5262    2.6646 H       1  UNL1        0.0000
     40 H           6.3962    4.1125    2.5457 H       1  UNL1        0.0000
     41 C           4.9613    5.4150    1.6281 C.3     1  UNL1        0.0000
     42 H           5.0626    4.9613    0.6452 H       1  UNL1        0.0000
     43 H           5.6016    6.2935    1.6725 H       1  UNL1        0.0000
     44 H           3.9304    5.7421    1.7524 H       1  UNL1        0.0000
     45 C           2.7925    4.3799    4.2841 C.3     1  UNL1        0.0000
     46 H           2.7879    4.3503    3.1942 H       1  UNL1        0.0000
     47 H           1.9129    4.9422    4.6047 H       1  UNL1        0.0000
     48 C           2.6681    2.9591    4.8381 C.3     1  UNL1        0.0000
     49 H           1.7419    2.5058    4.4921 H       1  UNL1        0.0000
     50 H           2.6617    2.9837    5.9254 H       1  UNL1        0.0000
     51 H           3.5006    2.3406    4.5133 H       1  UNL1        0.0000
     52 O           2.7720    5.7287    6.7418 O.3     1  UNL1        0.0000
     53 C           2.0008    6.9068    6.5872 C.3     1  UNL1        0.0000
     54 H           1.1356    6.7855    7.2357 H       1  UNL1        0.0000
     55 H           1.6644    7.0328    5.5513 H       1  UNL1        0.0000
     56 H           2.5575    7.8023    6.8813 H       1  UNL1        0.0000
@<TRIPOS>BOND
     1    29    26    1
     2    42    41    1
     3    28    26    1
     4    26    27    1
     5    26    25    1
     6    36    34    1
     7    32    30    1
     8    41    43    1
     9    41    44    1
    10    41    38    1
    11    37    34    1
    12    34    25    1
    13    34    35    1
    14    25    30    1
    15    25    16    1
    16    30    31    1
    17    30    33    1
    18    40    38    1
    19    39    38    1
    20    38     2    1
    21    18    17    1
    22    46    45    1
    23    17    16    1
    24    17    20    1
    25    17    19    1
    26    16    15    1
    27    16    21    1
    28    15     1    1
    29     2     1    1
    30     2     3    1
    31    45    47    1
    32    45     3    1
    33    45    48    1
    34    49    48    1
    35    51    48    1
    36     1    14    1
    37     3     4    1
    38    48    50    1
    39    22    21    1
    40    21    23    1
    41    21    24    1
    42    13    12    1
    43    55    53    1
    44    14    12   ar
    45    14     5   ar
    46     4     5    1
    47     4    52    1
    48    12    10   ar
    49     5     6   ar
    50    53    52    1
    51    53    56    1
    52    53    54    1
    53    10    11    1
    54    10     8   ar
    55     6     8   ar
    56     6     7    1
    57     8     9    1
