@<TRIPOS>MOLECULE
5,6,8,10,12,14
 56 57 0 0 0
SMALL
GASTEIGER

@<TRIPOS>ATOM
      1 C           5.4913    2.1318    4.5330 C.ar    1  UNL1        0.0000
      2 C           5.7566    3.4155    4.9799 C.ar    1  UNL1        0.0000
      3 C           5.3050    4.5274    4.2354 C.ar    1  UNL1        0.0000
      4 C           4.5354    4.3284    3.1026 C.ar    1  UNL1        0.0000
      5 C           4.1501    3.0277    2.6988 C.ar    1  UNL1        0.0000
      6 C           3.2223    2.8013    1.6336 C.2     1  UNL1        0.0000
      7 H           2.8219    3.6598    1.1086 H       1  UNL1        0.0000
      8 C           2.9539    1.5170    1.1858 C.2     1  UNL1        0.0000
      9 H           2.3502    1.3632    0.2988 H       1  UNL1        0.0000
     10 C           3.5099    0.4016    1.8555 C.3     1  UNL1        0.0000
     11 H           3.3349   -0.5962    1.4700 H       1  UNL1        0.0000
     12 C           4.3008    0.5892    2.9791 C.3     1  UNL1        0.0000
     13 H           4.7428   -0.2565    3.4856 H       1  UNL1        0.0000
     14 C           4.6755    1.9046    3.3983 C.ar    1  UNL1        0.0000
     15 O           5.9290    1.0526    5.2301 O.3     1  UNL1        0.0000
     16 SI          7.1918    0.0111    5.1212 Si      1  UNL1        0.0000
     17 C           8.8309    0.8221    5.6710 C.3     1  UNL1        0.0000
     18 H           8.8086    1.1300    6.7122 H       1  UNL1        0.0000
     19 H           9.0586    1.7007    5.0728 H       1  UNL1        0.0000
     20 H           9.6609    0.1320    5.5584 H       1  UNL1        0.0000
     21 C           7.4838   -0.5921    3.3289 C.3     1  UNL1        0.0000
     22 H           6.8087   -1.3906    3.0358 H       1  UNL1        0.0000
     23 H           8.4939   -0.9685    3.2043 H       1  UNL1        0.0000
     24 H           7.3529    0.2221    2.6203 H       1  UNL1        0.0000
     25 C           6.6304   -1.3870    6.3100 C.3     1  UNL1        0.0000
     26 C           6.4582   -0.8413    7.7298 C.3     1  UNL1        0.0000
     27 H           7.3964   -0.4460    8.1122 H       1  UNL1        0.0000
     28 H           6.1254   -1.6325    8.4004 H       1  UNL1        0.0000
     29 H           5.7157   -0.0479    7.7449 H       1  UNL1        0.0000
     30 C           7.6855   -2.4937    6.3322 C.3     1  UNL1        0.0000
     31 H           8.6429   -2.1078    6.6738 H       1  UNL1        0.0000
     32 H           7.8241   -2.9190    5.3409 H       1  UNL1        0.0000
     33 H           7.3825   -3.2940    7.0062 H       1  UNL1        0.0000
     34 C           5.2937   -1.9879    5.8647 C.3     1  UNL1        0.0000
     35 H           5.3704   -2.4237    4.8702 H       1  UNL1        0.0000
     36 H           4.5134   -1.2302    5.8583 H       1  UNL1        0.0000
     37 H           4.9898   -2.7770    6.5514 H       1  UNL1        0.0000
     38 C           6.4208    3.5697    6.3201 C.3     1  UNL1        0.0000
     39 H           6.9311    4.5258    6.4083 H       1  UNL1        0.0000
     40 H           7.1553    2.7767    6.4503 H       1  UNL1        0.0000
     41 C           5.3627    3.4472    7.4206 C.3     1  UNL1        0.0000
     42 H           5.8244    3.5397    8.4008 H       1  UNL1        0.0000
     43 H           4.8670    2.4821    7.3572 H       1  UNL1        0.0000
     44 H           4.6067    4.2220    7.3150 H       1  UNL1        0.0000
     45 C           5.6344    5.9357    4.6537 C.3     1  UNL1        0.0000
     46 H           5.4943    6.0444    5.7292 H       1  UNL1        0.0000
     47 H           4.9375    6.6121    4.1574 H       1  UNL1        0.0000
     48 C           7.0666    6.3300    4.2817 C.3     1  UNL1        0.0000
     49 H           7.2659    7.3507    4.6000 H       1  UNL1        0.0000
     50 H           7.2154    6.2731    3.2056 H       1  UNL1        0.0000
     51 H           7.7937    5.6724    4.7522 H       1  UNL1        0.0000
     52 O           4.0446    5.4068    2.3783 O.3     1  UNL1        0.0000
     53 C           4.7899    5.7283    1.2232 C.3     1  UNL1        0.0000
     54 H           4.2292    6.5060    0.7074 H       1  UNL1        0.0000
     55 H           4.9097    4.8637    0.5604 H       1  UNL1        0.0000
     56 H           5.7834    6.1101    1.4811 H       1  UNL1        0.0000
@<TRIPOS>BOND
     1     9     8    1
     2    55    53    1
     3    54    53    1
     4     7     6    1
     5     8     6    2
     6     8    10    1
     7    53    56    1
     8    53    52    1
     9    11    10    1
    10     6     5    1
    11    10    12    1
    12    52     4    1
    13    24    21    1
    14     5     4   ar
    15     5    14   ar
    16    12    14    1
    17    12    13    1
    18    22    21    1
    19     4     3   ar
    20    23    21    1
    21    50    48    1
    22    21    16    1
    23    14     1   ar
    24    47    45    1
    25     3    45    1
    26     3     2   ar
    27    48    49    1
    28    48    45    1
    29    48    51    1
    30     1     2   ar
    31     1    15    1
    32    45    46    1
    33    35    34    1
    34     2    38    1
    35    19    17    1
    36    16    15    1
    37    16    17    1
    38    16    25    1
    39    32    30    1
    40    20    17    1
    41    17    18    1
    42    36    34    1
    43    34    25    1
    44    34    37    1
    45    25    30    1
    46    25    26    1
    47    38    39    1
    48    38    40    1
    49    38    41    1
    50    30    31    1
    51    30    33    1
    52    44    41    1
    53    43    41    1
    54    41    42    1
    55    26    29    1
    56    26    27    1
    57    26    28    1
