@<TRIPOS>MOLECULE
5,6,8,10,12,14
 56 57 0 0 0
SMALL
GASTEIGER

@<TRIPOS>ATOM
      1 C           4.9502    2.1310   37.1136 C.ar    1  UNL1        0.0000
      2 C           4.6852    3.4149   37.5603 C.ar    1  UNL1        0.0000
      3 C           5.1369    4.5266   36.8155 C.ar    1  UNL1        0.0000
      4 C           5.9062    4.3272   35.6826 C.ar    1  UNL1        0.0000
      5 C           6.2912    3.0264   35.2789 C.ar    1  UNL1        0.0000
      6 C           7.2187    2.7996   34.2135 C.2     1  UNL1        0.0000
      7 H           7.6191    3.6579   33.6882 H       1  UNL1        0.0000
      8 C           7.4867    1.5151   33.7660 C.2     1  UNL1        0.0000
      9 H           8.0901    1.3610   32.8788 H       1  UNL1        0.0000
     10 C           6.9308    0.4000   34.4361 C.3     1  UNL1        0.0000
     11 H           7.1056   -0.5979   34.0508 H       1  UNL1        0.0000
     12 C           6.1403    0.5879   35.5600 C.3     1  UNL1        0.0000
     13 H           5.6985   -0.2575   36.0668 H       1  UNL1        0.0000
     14 C           5.7658    1.9035   35.9788 C.ar    1  UNL1        0.0000
     15 O           4.5124    1.0521   37.8110 O.3     1  UNL1        0.0000
     16 SI          3.2498    0.0104   37.7024 Si      1  UNL1        0.0000
     17 C           2.9575   -0.5919   35.9098 C.3     1  UNL1        0.0000
     18 H           3.6332   -1.3898   35.6160 H       1  UNL1        0.0000
     19 H           3.0877    0.2228   35.2017 H       1  UNL1        0.0000
     20 H           1.9477   -0.9691   35.7853 H       1  UNL1        0.0000
     21 C           1.6109    0.8207   38.2537 C.3     1  UNL1        0.0000
     22 H           1.6342    1.1287   39.2948 H       1  UNL1        0.0000
     23 H           0.7811    0.1302   38.1420 H       1  UNL1        0.0000
     24 H           1.3821    1.6992   37.6556 H       1  UNL1        0.0000
     25 C           3.8117   -1.3881   38.8905 C.3     1  UNL1        0.0000
     26 C           3.9856   -0.8424   40.3101 C.3     1  UNL1        0.0000
     27 H           3.0482   -0.4458   40.6931 H       1  UNL1        0.0000
     28 H           4.7291   -0.0500   40.3246 H       1  UNL1        0.0000
     29 H           4.3177   -1.6340   40.9806 H       1  UNL1        0.0000
     30 C           2.7562   -2.4943   38.9138 C.3     1  UNL1        0.0000
     31 H           1.7992   -2.1080   39.2560 H       1  UNL1        0.0000
     32 H           3.0594   -3.2946   39.5877 H       1  UNL1        0.0000
     33 H           2.6167   -2.9198   37.9227 H       1  UNL1        0.0000
     34 C           5.1478   -1.9894   38.4440 C.3     1  UNL1        0.0000
     35 H           5.0700   -2.4250   37.4494 H       1  UNL1        0.0000
     36 H           5.4519   -2.7789   39.1302 H       1  UNL1        0.0000
     37 H           5.9285   -1.2322   38.4371 H       1  UNL1        0.0000
     38 C           4.0215    3.5694   38.9006 C.3     1  UNL1        0.0000
     39 H           3.2870    2.7765   39.0312 H       1  UNL1        0.0000
     40 H           3.5114    4.5256   38.9890 H       1  UNL1        0.0000
     41 C           5.0801    3.4468   40.0007 C.3     1  UNL1        0.0000
     42 H           4.6190    3.5395   40.9812 H       1  UNL1        0.0000
     43 H           5.8362    4.2215   39.8946 H       1  UNL1        0.0000
     44 H           5.5756    2.4817   39.9372 H       1  UNL1        0.0000
     45 C           4.8080    5.9350   37.2338 C.3     1  UNL1        0.0000
     46 H           5.5050    6.6112   36.7373 H       1  UNL1        0.0000
     47 H           4.9484    6.0437   38.3092 H       1  UNL1        0.0000
     48 C           3.3758    6.3297   36.8622 C.3     1  UNL1        0.0000
     49 H           3.1767    7.3501   37.1813 H       1  UNL1        0.0000
     50 H           2.6487    5.6718   37.3323 H       1  UNL1        0.0000
     51 H           3.2270    6.2736   35.7860 H       1  UNL1        0.0000
     52 O           6.3970    5.4054   34.9580 O.3     1  UNL1        0.0000
     53 C           5.6518    5.7267   33.8028 C.3     1  UNL1        0.0000
     54 H           6.2123    6.5044   33.2870 H       1  UNL1        0.0000
     55 H           4.6582    6.1083   34.0606 H       1  UNL1        0.0000
     56 H           5.5322    4.8620   33.1401 H       1  UNL1        0.0000
@<TRIPOS>BOND
     1     9     8    1
     2    56    53    1
     3    54    53    1
     4     7     6    1
     5     8     6    2
     6     8    10    1
     7    53    55    1
     8    53    52    1
     9    11    10    1
    10     6     5    1
    11    10    12    1
    12    52     4    1
    13    19    17    1
    14     5     4   ar
    15     5    14   ar
    16    12    14    1
    17    12    13    1
    18    18    17    1
    19     4     3   ar
    20    20    17    1
    21    51    48    1
    22    17    16    1
    23    14     1   ar
    24    46    45    1
    25     3    45    1
    26     3     2   ar
    27    48    49    1
    28    48    45    1
    29    48    50    1
    30     1     2   ar
    31     1    15    1
    32    45    47    1
    33    35    34    1
    34     2    38    1
    35    24    21    1
    36    16    15    1
    37    16    21    1
    38    16    25    1
    39    33    30    1
    40    23    21    1
    41    21    22    1
    42    37    34    1
    43    34    25    1
    44    34    36    1
    45    25    30    1
    46    25    26    1
    47    38    40    1
    48    38    39    1
    49    38    41    1
    50    30    31    1
    51    30    32    1
    52    43    41    1
    53    44    41    1
    54    41    42    1
    55    26    28    1
    56    26    27    1
    57    26    29    1
