@<TRIPOS>MOLECULE
4,5,6,7,8,10
 70 71 0 0 0
SMALL
GASTEIGER

@<TRIPOS>ATOM
      1 SI          3.0819   -0.0725    6.7652 Si      1  UNL1        0.0000
      2 O           3.8993    1.0081    5.8398 O.3     1  UNL1        0.0000
      3 O           3.2805    4.0831    1.2888 O.2     1  UNL1        0.0000
      4 C           3.7593    1.7449    4.7043 C.3     1  UNL1        0.0000
      5 C           3.2413    3.0644    4.7858 C.3     1  UNL1        0.0000
      6 C           3.0937    3.8313    3.6240 C.3     1  UNL1        0.0000
      7 C           3.4948    3.2866    2.3746 C.2     1  UNL1        0.0000
      8 C           4.0481    2.0075    2.3078 C.2     1  UNL1        0.0000
      9 H           4.3049    1.5795    1.3502 H       1  UNL1        0.0000
     10 C           4.2133    1.2326    3.4794 C.3     1  UNL1        0.0000
     11 C           2.4930    5.2148    3.6264 C.3     1  UNL1        0.0000
     12 H           1.7347    5.2713    2.8403 H       1  UNL1        0.0000
     13 H           3.2783    5.9275    3.3566 H       1  UNL1        0.0000
     14 C           1.8919    5.5991    4.9748 C.3     1  UNL1        0.0000
     15 H           0.9152    5.1237    5.0983 H       1  UNL1        0.0000
     16 H           1.7430    6.6788    5.0106 H       1  UNL1        0.0000
     17 C           2.8150    5.1441    6.0978 C.3     1  UNL1        0.0000
     18 H           2.4635    5.5208    7.0592 H       1  UNL1        0.0000
     19 H           3.8235    5.5274    5.9251 H       1  UNL1        0.0000
     20 C           2.8483    3.6207    6.1254 C.3     1  UNL1        0.0000
     21 H           3.5597    3.2697    6.8743 H       1  UNL1        0.0000
     22 H           1.8601    3.2406    6.4051 H       1  UNL1        0.0000
     23 C           4.8198   -0.1459    3.4383 C.3     1  UNL1        0.0000
     24 H           4.0251   -0.8935    3.5354 H       1  UNL1        0.0000
     25 H           5.4616   -0.2452    4.3171 H       1  UNL1        0.0000
     26 C           5.6453   -0.4507    2.1887 C.3     1  UNL1        0.0000
     27 H           6.2771    0.4064    1.9442 H       1  UNL1        0.0000
     28 H           4.9835   -0.6461    1.3401 H       1  UNL1        0.0000
     29 C           6.5448   -1.6654    2.4156 C.3     1  UNL1        0.0000
     30 H           5.9664   -2.4852    2.8489 H       1  UNL1        0.0000
     31 H           7.3328   -1.3961    3.1209 H       1  UNL1        0.0000
     32 C           7.1743   -2.1600    1.1067 C.3     1  UNL1        0.0000
     33 H           6.4012   -2.5653    0.4457 H       1  UNL1        0.0000
     34 H           7.9011   -2.9513    1.3099 H       1  UNL1        0.0000
     35 C           7.8435   -1.0991    0.3959 C.1     1  UNL1        0.0000
     36 C           0.4082    0.7408    6.0283 C.3     1  UNL1        0.0000
     37 H          -0.5917    0.4568    5.7015 H       1  UNL1        0.0000
     38 H           0.3226    1.2113    7.0044 H       1  UNL1        0.0000
     39 H           0.7955    1.4701    5.3191 H       1  UNL1        0.0000
     40 C           1.3212   -0.4837    6.0823 C.3     1  UNL1        0.0000
     41 H           0.8551   -1.2050    6.7604 H       1  UNL1        0.0000
     42 C           1.3621   -1.1273    4.6964 C.3     1  UNL1        0.0000
     43 H           0.3577   -1.3982    4.3720 H       1  UNL1        0.0000
     44 H           1.7702   -0.4293    3.9672 H       1  UNL1        0.0000
     45 H           1.9698   -2.0285    4.6980 H       1  UNL1        0.0000
     46 C           3.5629   -2.8348    7.4887 C.3     1  UNL1        0.0000
     47 H           4.1639   -3.7323    7.3480 H       1  UNL1        0.0000
     48 H           3.5426   -2.6108    8.5513 H       1  UNL1        0.0000
     49 H           2.5472   -3.0503    7.1674 H       1  UNL1        0.0000
     50 C           4.1564   -1.6689    6.6999 C.3     1  UNL1        0.0000
     51 H           4.1990   -1.9872    5.6521 H       1  UNL1        0.0000
     52 C           5.5994   -1.4264    7.1443 C.3     1  UNL1        0.0000
     53 H           6.2249   -2.2834    6.8968 H       1  UNL1        0.0000
     54 H           6.0150   -0.5441    6.6647 H       1  UNL1        0.0000
     55 H           5.6466   -1.2796    8.2194 H       1  UNL1        0.0000
     56 C           2.2029   -0.0621    9.5213 C.3     1  UNL1        0.0000
     57 H           2.0421    0.5116   10.4330 H       1  UNL1        0.0000
     58 H           1.2376   -0.4081    9.1609 H       1  UNL1        0.0000
     59 H           2.8029   -0.9310    9.7769 H       1  UNL1        0.0000
     60 C           2.9104    0.7946    8.4730 C.3     1  UNL1        0.0000
     61 H           2.2887    1.6842    8.3209 H       1  UNL1        0.0000
     62 C           4.2501    1.2836    9.0259 C.3     1  UNL1        0.0000
     63 H           4.0919    1.9452    9.8765 H       1  UNL1        0.0000
     64 H           4.8529    0.4455    9.3630 H       1  UNL1        0.0000
     65 H           4.8160    1.8229    8.2709 H       1  UNL1        0.0000
     66 C           4.0009    3.8063    0.1064 C.3     1  UNL1        0.0000
     67 H           3.8409    4.6671   -0.5401 H       1  UNL1        0.0000
     68 H           5.0701    3.6993    0.3157 H       1  UNL1        0.0000
     69 H           3.6277    2.9082   -0.3965 H       1  UNL1        0.0000
     70 N           8.3543   -0.2591   -0.1866 N.1     1  UNL1        0.0000
@<TRIPOS>BOND
     1    67    66    1
     2    69    66    1
     3    70    35    3
     4    66    68    1
     5    66     3    1
     6    35    32    1
     7    33    32    1
     8    32    34    1
     9    32    29    1
    10     3     7    1
    11    28    26    1
    12     9     8    1
    13    27    26    1
    14    26    29    1
    15    26    23    1
    16     8     7    2
    17     8    10    1
    18     7     6    1
    19    29    30    1
    20    29    31    1
    21    12    11    1
    22    13    11    1
    23    23    10    1
    24    23    24    1
    25    23    25    1
    26    10     4    1
    27     6    11    1
    28     6     5    1
    29    11    14    1
    30    44    42    1
    31    43    42    1
    32    42    45    1
    33    42    40    1
    34     4     5    1
    35     4     2    1
    36     5    20    1
    37    14    16    1
    38    14    15    1
    39    14    17    1
    40    39    36    1
    41    51    50    1
    42    37    36    1
    43     2     1    1
    44    19    17    1
    45    36    40    1
    46    36    38    1
    47    40    41    1
    48    40     1    1
    49    17    20    1
    50    17    18    1
    51    20    22    1
    52    20    21    1
    53    54    52    1
    54    50     1    1
    55    50    52    1
    56    50    46    1
    57     1    60    1
    58    53    52    1
    59    52    55    1
    60    49    46    1
    61    47    46    1
    62    46    48    1
    63    65    62    1
    64    61    60    1
    65    60    62    1
    66    60    56    1
    67    62    64    1
    68    62    63    1
    69    58    56    1
    70    56    59    1
    71    56    57    1
