@<TRIPOS>MOLECULE
5,6,8,9,10
 61 62 0 0 0
SMALL
GASTEIGER

@<TRIPOS>ATOM
      1 SI         -0.4585    8.2042    3.8063 Si      1  UNL1        0.0000
      2 O           1.2027   14.8495    4.1816 O.2     1  UNL1        0.0000
      3 O          -0.9131    9.7458    4.1832 O.2     1  UNL1        0.0000
      4 N          -4.8253   14.5965    0.6846 N.1     1  UNL1        0.0000
      5 C           0.7283   13.5769    4.0818 C.2     1  UNL1        0.0000
      6 C           0.0904   13.0589    2.9565 C.2     1  UNL1        0.0000
      7 H          -0.0903   13.6782    2.0874 H       1  UNL1        0.0000
      8 C          -0.4245   11.7399    2.9571 C.3     1  UNL1        0.0000
      9 C          -0.3127   10.9571    4.1152 C.2     1  UNL1        0.0000
     10 C           0.3685   11.4675    5.2556 C.2     1  UNL1        0.0000
     11 C           0.4315   10.6086    6.4919 C.3     1  UNL1        0.0000
     12 H           1.1824    9.8308    6.3319 H       1  UNL1        0.0000
     13 H          -0.5311   10.1065    6.6226 H       1  UNL1        0.0000
     14 C           0.7971   11.4020    7.7420 C.3     1  UNL1        0.0000
     15 H           1.0306   10.7113    8.5533 H       1  UNL1        0.0000
     16 H          -0.0491   12.0172    8.0583 H       1  UNL1        0.0000
     17 C           1.9887   12.3017    7.4389 C.3     1  UNL1        0.0000
     18 H           2.7978   11.7060    7.0094 H       1  UNL1        0.0000
     19 H           2.3569   12.7739    8.3505 H       1  UNL1        0.0000
     20 C           1.5602   13.3707    6.4421 C.3     1  UNL1        0.0000
     21 H           2.4203   13.9558    6.1093 H       1  UNL1        0.0000
     22 H           0.8646   14.0694    6.9211 H       1  UNL1        0.0000
     23 C           0.8889   12.7655    5.2397 C.3     1  UNL1        0.0000
     24 C           1.4247   15.5706    2.9883 C.3     1  UNL1        0.0000
     25 H           1.9703   16.4643    3.2849 H       1  UNL1        0.0000
     26 H           2.0306   14.9870    2.2872 H       1  UNL1        0.0000
     27 H           0.4845   15.8675    2.5128 H       1  UNL1        0.0000
     28 C          -1.2382   11.2882    1.7766 C.3     1  UNL1        0.0000
     29 H          -1.2848   10.2006    1.7522 H       1  UNL1        0.0000
     30 H          -0.7687   11.6342    0.8523 H       1  UNL1        0.0000
     31 C          -2.6627   11.8496    1.8671 C.3     1  UNL1        0.0000
     32 H          -2.6255   12.9416    1.9135 H       1  UNL1        0.0000
     33 H          -3.1266   11.4957    2.7920 H       1  UNL1        0.0000
     34 C          -3.5103   11.4255    0.6708 C.3     1  UNL1        0.0000
     35 H          -3.5857   10.3369    0.6392 H       1  UNL1        0.0000
     36 H          -3.0292   11.7582   -0.2520 H       1  UNL1        0.0000
     37 C          -4.9250   12.0154    0.7446 C.3     1  UNL1        0.0000
     38 H          -5.4177   11.7050    1.6707 H       1  UNL1        0.0000
     39 H          -5.5269   11.6696   -0.1003 H       1  UNL1        0.0000
     40 C          -4.8831   13.4550    0.7115 C.1     1  UNL1        0.0000
     41 C           0.6435    7.4076    5.1421 C.3     1  UNL1        0.0000
     42 H           1.6520    7.8084    5.1126 H       1  UNL1        0.0000
     43 H           0.2546    7.5439    6.1468 H       1  UNL1        0.0000
     44 H           0.7262    6.3391    4.9706 H       1  UNL1        0.0000
     45 C           0.4788    8.1243    2.1508 C.3     1  UNL1        0.0000
     46 H           1.1754    8.9582    2.0747 H       1  UNL1        0.0000
     47 H           1.0622    7.2126    2.0825 H       1  UNL1        0.0000
     48 H          -0.1704    8.1534    1.2805 H       1  UNL1        0.0000
     49 C          -2.1745    7.3300    3.7511 C.3     1  UNL1        0.0000
     50 C          -3.1122    7.9839    2.7335 C.3     1  UNL1        0.0000
     51 H          -4.0734    7.4698    2.7191 H       1  UNL1        0.0000
     52 H          -3.2871    9.0242    2.9947 H       1  UNL1        0.0000
     53 H          -2.6910    7.9375    1.7313 H       1  UNL1        0.0000
     54 C          -2.8472    7.3799    5.1250 C.3     1  UNL1        0.0000
     55 H          -3.8227    6.8953    5.0893 H       1  UNL1        0.0000
     56 H          -2.2427    6.8681    5.8693 H       1  UNL1        0.0000
     57 H          -2.9890    8.4096    5.4444 H       1  UNL1        0.0000
     58 C          -1.9763    5.8671    3.3565 C.3     1  UNL1        0.0000
     59 H          -2.9345    5.3503    3.3131 H       1  UNL1        0.0000
     60 H          -1.5026    5.7898    2.3814 H       1  UNL1        0.0000
     61 H          -1.3490    5.3539    4.0799 H       1  UNL1        0.0000
@<TRIPOS>BOND
     1    36    34    1
     2    39    37    1
     3    35    34    1
     4    34    37    1
     5    34    31    1
     6     4    40    3
     7    40    37    1
     8    37    38    1
     9    30    28    1
    10    48    45    1
    11    53    50    1
    12    29    28    1
    13    28    31    1
    14    28     8    1
    15    31    32    1
    16    31    33    1
    17    46    45    1
    18    47    45    1
    19     7     6    1
    20    45     1    1
    21    26    24    1
    22    60    58    1
    23    27    24    1
    24    51    50    1
    25    50    52    1
    26    50    49    1
    27     6     8    1
    28     6     5    2
    29     8     9    1
    30    24    25    1
    31    24     2    1
    32    59    58    1
    33    58    49    1
    34    58    61    1
    35    49     1    1
    36    49    54    1
    37     1     3    1
    38     1    41    1
    39     5     2    1
    40     5    23    1
    41     9     3    1
    42     9    10    2
    43    44    41    1
    44    55    54    1
    45    42    41    1
    46    54    57    1
    47    54    56    1
    48    41    43    1
    49    23    10    1
    50    23    20    1
    51    10    11    1
    52    21    20    1
    53    12    11    1
    54    20    22    1
    55    20    17    1
    56    11    13    1
    57    11    14    1
    58    18    17    1
    59    17    14    1
    60    17    19    1
    61    14    16    1
    62    14    15    1
