@<TRIPOS>MOLECULE
5,6,7,9,10,11
 54 54 0 0 0
SMALL
GASTEIGER

@<TRIPOS>ATOM
      1 SI          0.5374    8.5061    2.4911 Si      1  UNL1        0.0000
      2 O          -0.2095    9.5313    1.4278 O.2     1  UNL1        0.0000
      3 O           1.6244   12.8826   -2.5676 O.2     1  UNL1        0.0000
      4 N          -4.4000    7.4174    0.4394 N.1     1  UNL1        0.0000
      5 C           0.2767   10.3744    0.5054 C.2     1  UNL1        0.0000
      6 C          -0.4967   11.5166    0.1664 C.3     1  UNL1        0.0000
      7 C          -0.0434   12.3719   -0.8441 C.2     1  UNL1        0.0000
      8 H          -0.6849   13.1851   -1.1606 H       1  UNL1        0.0000
      9 C           1.1717   12.1296   -1.5224 C.2     1  UNL1        0.0000
     10 C           1.9704   11.0391   -1.1381 C.3     1  UNL1        0.0000
     11 C           1.5009   10.1679   -0.1301 C.2     1  UNL1        0.0000
     12 H           2.0627    9.2736    0.1030 H       1  UNL1        0.0000
     13 C           2.1959    9.2208    3.0948 C.3     1  UNL1        0.0000
     14 H           3.0173    8.9831    2.4252 H       1  UNL1        0.0000
     15 H           2.1440   10.3057    3.1676 H       1  UNL1        0.0000
     16 H           2.4663    8.8363    4.0724 H       1  UNL1        0.0000
     17 C           0.7936    6.8239    1.6242 C.3     1  UNL1        0.0000
     18 H           1.4982    6.8872    0.7991 H       1  UNL1        0.0000
     19 H           1.1755    6.0816    2.3165 H       1  UNL1        0.0000
     20 H          -0.1421    6.4466    1.2210 H       1  UNL1        0.0000
     21 C          -0.7580    8.4073    3.9043 C.3     1  UNL1        0.0000
     22 C          -2.1480    8.0798    3.3536 C.3     1  UNL1        0.0000
     23 H          -2.8784    8.0463    4.1615 H       1  UNL1        0.0000
     24 H          -2.4640    8.8324    2.6373 H       1  UNL1        0.0000
     25 H          -2.1553    7.1157    2.8520 H       1  UNL1        0.0000
     26 C          -0.8283    9.7386    4.6582 C.3     1  UNL1        0.0000
     27 H          -1.5819    9.6892    5.4438 H       1  UNL1        0.0000
     28 H           0.1268    9.9778    5.1180 H       1  UNL1        0.0000
     29 H          -1.0893   10.5539    3.9876 H       1  UNL1        0.0000
     30 C          -0.3542    7.3106    4.8892 C.3     1  UNL1        0.0000
     31 H          -1.0674    7.2571    5.7107 H       1  UNL1        0.0000
     32 H          -0.3299    6.3411    4.3986 H       1  UNL1        0.0000
     33 H           0.6298    7.5063    5.3077 H       1  UNL1        0.0000
     34 C          -1.8499   11.6974    0.7941 C.3     1  UNL1        0.0000
     35 H          -2.1771   12.7351    0.6953 H       1  UNL1        0.0000
     36 H          -1.7835   11.4596    1.8583 H       1  UNL1        0.0000
     37 C          -2.8734   10.7599    0.1409 C.3     1  UNL1        0.0000
     38 H          -2.4976    9.7352    0.1954 H       1  UNL1        0.0000
     39 H          -2.9832   11.0209   -0.9161 H       1  UNL1        0.0000
     40 C          -4.2311   10.8335    0.8342 C.3     1  UNL1        0.0000
     41 H          -4.6346   11.8457    0.7571 H       1  UNL1        0.0000
     42 H          -4.1103   10.6005    1.8946 H       1  UNL1        0.0000
     43 C          -5.2349    9.8527    0.2137 C.3     1  UNL1        0.0000
     44 H          -5.3734   10.0721   -0.8494 H       1  UNL1        0.0000
     45 H          -6.2046    9.9345    0.7127 H       1  UNL1        0.0000
     46 C          -4.7761    8.4919    0.3372 C.1     1  UNL1        0.0000
     47 C           1.1052   14.1847   -2.7303 C.3     1  UNL1        0.0000
     48 H           1.7348   14.6572   -3.4821 H       1  UNL1        0.0000
     49 H           0.0720   14.1678   -3.0925 H       1  UNL1        0.0000
     50 H           1.1642   14.7519   -1.7962 H       1  UNL1        0.0000
     51 C           3.2444   10.7392   -1.8703 C.3     1  UNL1        0.0000
     52 H           3.0385   10.1433   -2.7612 H       1  UNL1        0.0000
     53 H           3.7188   11.6639   -2.1904 H       1  UNL1        0.0000
     54 H           3.9316   10.1860   -1.2342 H       1  UNL1        0.0000
@<TRIPOS>BOND
     1    48    47    1
     2    49    47    1
     3    52    51    1
     4    47     3    1
     5    47    50    1
     6     3     9    1
     7    53    51    1
     8    51    54    1
     9    51    10    1
    10     9    10    1
    11     9     7    2
    12     8     7    1
    13    10    11    1
    14    39    37    1
    15    44    43    1
    16     7     6    1
    17    11    12    1
    18    11     5    2
    19    37    38    1
    20    37    34    1
    21    37    40    1
    22     6     5    1
    23     6    34    1
    24    43    46    1
    25    43    45    1
    26    43    40    1
    27    46     4    3
    28     5     2    1
    29    35    34    1
    30    41    40    1
    31    34    36    1
    32    18    17    1
    33    40    42    1
    34    20    17    1
    35     2     1    1
    36    17    19    1
    37    17     1    1
    38    14    13    1
    39     1    13    1
    40     1    21    1
    41    24    22    1
    42    25    22    1
    43    13    15    1
    44    13    16    1
    45    22    21    1
    46    22    23    1
    47    21    26    1
    48    21    30    1
    49    29    26    1
    50    32    30    1
    51    26    28    1
    52    26    27    1
    53    30    33    1
    54    30    31    1
