@<TRIPOS>MOLECULE
5,6,7,8,10,11
 63 63 0 0 0
SMALL
GASTEIGER

@<TRIPOS>ATOM
      1 SI          1.8472    6.4917   12.0261 Si      1  UNL1        0.0000
      2 O           1.2633    5.0722   11.4076 O.2     1  UNL1        0.0000
      3 O          -2.6584    3.6959    7.7434 O.2     1  UNL1        0.0000
      4 N           7.3397    3.8614    6.6352 N.1     1  UNL1        0.0000
      5 C           0.5553    4.7614    9.1311 C.3     1  UNL1        0.0000
      6 C           0.2985    4.7211   10.5229 C.2     1  UNL1        0.0000
      7 C          -0.9586    4.3001   11.0020 C.2     1  UNL1        0.0000
      8 C          -1.9557    3.9139   10.0832 C.3     1  UNL1        0.0000
      9 H          -2.9356    3.6598   10.4693 H       1  UNL1        0.0000
     10 C          -1.7316    3.9777    8.7030 C.2     1  UNL1        0.0000
     11 C          -0.4521    4.3491    8.2494 C.2     1  UNL1        0.0000
     12 H          -0.3003    4.4248    7.1790 H       1  UNL1        0.0000
     13 C           1.8883    5.1818    8.5792 C.3     1  UNL1        0.0000
     14 H           2.4257    5.7710    9.3215 H       1  UNL1        0.0000
     15 H           1.7382    5.8022    7.6906 H       1  UNL1        0.0000
     16 C           2.7445    3.9655    8.2053 C.3     1  UNL1        0.0000
     17 H           2.2411    3.3899    7.4251 H       1  UNL1        0.0000
     18 H           2.8367    3.3185    9.0804 H       1  UNL1        0.0000
     19 C           4.1339    4.3773    7.7290 C.3     1  UNL1        0.0000
     20 H           4.6281    4.9698    8.5024 H       1  UNL1        0.0000
     21 H           4.0555    4.9970    6.8322 H       1  UNL1        0.0000
     22 C           4.9878    3.1412    7.4211 C.3     1  UNL1        0.0000
     23 H           4.5184    2.5400    6.6373 H       1  UNL1        0.0000
     24 H           5.0855    2.5194    8.3155 H       1  UNL1        0.0000
     25 C           6.3027    3.5269    6.9813 C.1     1  UNL1        0.0000
     26 C          -1.2586    4.2812   12.4718 C.3     1  UNL1        0.0000
     27 H          -1.6712    5.2397   12.7941 H       1  UNL1        0.0000
     28 H          -1.9835    3.5029   12.7018 H       1  UNL1        0.0000
     29 H          -0.3504    4.0916   13.0372 H       1  UNL1        0.0000
     30 C          -3.7617    2.8940    8.1091 C.3     1  UNL1        0.0000
     31 H          -4.2512    2.6257    7.1750 H       1  UNL1        0.0000
     32 H          -3.4296    1.9859    8.6238 H       1  UNL1        0.0000
     33 H          -4.4703    3.4418    8.7388 H       1  UNL1        0.0000
     34 C           1.0357    7.9255   11.0228 C.3     1  UNL1        0.0000
     35 H           1.1033    7.6542    9.9620 H       1  UNL1        0.0000
     36 C          -0.4533    8.0655   11.3427 C.3     1  UNL1        0.0000
     37 H          -0.9074    8.8325   10.7161 H       1  UNL1        0.0000
     38 H          -0.9768    7.1291   11.1601 H       1  UNL1        0.0000
     39 H          -0.6036    8.3474   12.3818 H       1  UNL1        0.0000
     40 C           1.7344    9.2746   11.1776 C.3     1  UNL1        0.0000
     41 H           1.2428   10.0289   10.5645 H       1  UNL1        0.0000
     42 H           1.7085    9.6109   12.2103 H       1  UNL1        0.0000
     43 H           2.7727    9.2089   10.8644 H       1  UNL1        0.0000
     44 C           3.7414    6.3967   11.6966 C.3     1  UNL1        0.0000
     45 H           3.9241    6.7518   10.6739 H       1  UNL1        0.0000
     46 C           4.2697    4.9629   11.7809 C.3     1  UNL1        0.0000
     47 H           5.3056    4.9195   11.4470 H       1  UNL1        0.0000
     48 H           4.2303    4.6024   12.8046 H       1  UNL1        0.0000
     49 H           3.6780    4.2882   11.1697 H       1  UNL1        0.0000
     50 C           4.5643    7.2950   12.6183 C.3     1  UNL1        0.0000
     51 H           5.6121    7.2799   12.3215 H       1  UNL1        0.0000
     52 H           4.2157    8.3236   12.5841 H       1  UNL1        0.0000
     53 H           4.5061    6.9453   13.6453 H       1  UNL1        0.0000
     54 C           1.3199    6.4816   13.8768 C.3     1  UNL1        0.0000
     55 H           0.2344    6.3340   13.9058 H       1  UNL1        0.0000
     56 C           1.9499    5.3093   14.6334 C.3     1  UNL1        0.0000
     57 H           1.5028    5.2080   15.6215 H       1  UNL1        0.0000
     58 H           1.8121    4.3751   14.0947 H       1  UNL1        0.0000
     59 H           3.0166    5.4699   14.7648 H       1  UNL1        0.0000
     60 C           1.6032    7.7849   14.6226 C.3     1  UNL1        0.0000
     61 H           1.2752    7.7020   15.6580 H       1  UNL1        0.0000
     62 H           2.6645    8.0141   14.6236 H       1  UNL1        0.0000
     63 H           1.0748    8.6191   14.1690 H       1  UNL1        0.0000
@<TRIPOS>BOND
     1     4    25    3
     2    23    22    1
     3    21    19    1
     4    25    22    1
     5    31    30    1
     6    12    11    1
     7    22    19    1
     8    22    24    1
     9    17    16    1
    10    15    13    1
    11    19    16    1
    12    19    20    1
    13     3    30    1
    14     3    10    1
    15    30    32    1
    16    30    33    1
    17    16    13    1
    18    16    18    1
    19    11    10    2
    20    11     5    1
    21    13     5    1
    22    13    14    1
    23    10     8    1
    24     5     6    1
    25    35    34    1
    26     8     9    1
    27     8     7    1
    28     6     7    2
    29     6     2    1
    30    41    40    1
    31    45    44    1
    32    37    36    1
    33    43    40    1
    34     7    26    1
    35    34    40    1
    36    34    36    1
    37    34     1    1
    38    38    36    1
    39    49    46    1
    40    40    42    1
    41    36    39    1
    42     2     1    1
    43    47    46    1
    44    44    46    1
    45    44     1    1
    46    44    50    1
    47    46    48    1
    48     1    54    1
    49    51    50    1
    50    26    28    1
    51    26    27    1
    52    26    29    1
    53    52    50    1
    54    50    53    1
    55    54    55    1
    56    54    60    1
    57    54    56    1
    58    58    56    1
    59    63    60    1
    60    60    62    1
    61    60    61    1
    62    56    59    1
    63    56    57    1
