@<TRIPOS>MOLECULE
8,9,10,11,12,13
 64 67 0 0 0
SMALL
GASTEIGER

@<TRIPOS>ATOM
      1 SI          7.3827    0.2344    9.6731 Si      1  UNL1        0.0000
      2 O           7.0494    1.4016    8.5727 O.3     1  UNL1        0.0000
      3 O           9.5869    3.1928    6.1452 O.2     1  UNL1        0.0000
      4 O           8.6621    4.0042    4.2735 O.3     1  UNL1        0.0000
      5 C           6.3531    2.6122    8.7589 C.3     1  UNL1        0.0000
      6 C           7.0472    3.7545    7.9970 C.3     1  UNL1        0.0000
      7 C           6.4632    3.7037    6.5747 C.3     1  UNL1        0.0000
      8 C           5.0880    3.1397    6.8092 C.2     1  UNL1        0.0000
      9 C           3.9999    3.0837    5.9223 C.2     1  UNL1        0.0000
     10 C           2.8415    2.4193    6.3312 C.3     1  UNL1        0.0000
     11 C           2.7822    1.7739    7.5868 C.2     1  UNL1        0.0000
     12 C           3.8717    1.8108    8.4574 C.2     1  UNL1        0.0000
     13 C           5.0202    2.5170    8.0626 C.3     1  UNL1        0.0000
     14 C           7.2648    2.7389    5.6735 C.3     1  UNL1        0.0000
     15 C           8.6380    3.3098    5.4153 C.2     1  UNL1        0.0000
     16 C           9.8913    4.6397    3.9472 C.3     1  UNL1        0.0000
     17 C           5.7813   -0.2195   10.5973 C.ar    1  UNL1        0.0000
     18 C           4.9782   -1.3126   10.2858 C.ar    1  UNL1        0.0000
     19 C           3.7762   -1.5339   10.9363 C.ar    1  UNL1        0.0000
     20 C           3.3451   -0.6565   11.9164 C.ar    1  UNL1        0.0000
     21 C           4.1303    0.4352   12.2482 C.ar    1  UNL1        0.0000
     22 C           5.3332    0.6436   11.5978 C.ar    1  UNL1        0.0000
     23 C           8.5927    0.8540   10.9943 C.ar    1  UNL1        0.0000
     24 C           8.6841    0.2404   12.2420 C.ar    1  UNL1        0.0000
     25 C           9.5854    0.6833   13.1927 C.ar    1  UNL1        0.0000
     26 C          10.4173    1.7548   12.9134 C.ar    1  UNL1        0.0000
     27 C          10.3426    2.3769   11.6787 C.ar    1  UNL1        0.0000
     28 C           9.4406    1.9273   10.7316 C.ar    1  UNL1        0.0000
     29 C           8.2196   -1.0982    8.5790 C.3     1  UNL1        0.0000
     30 C           8.4943   -2.3472    9.4149 C.3     1  UNL1        0.0000
     31 C           9.5573   -0.5489    8.0748 C.3     1  UNL1        0.0000
     32 C           7.3661   -1.4738    7.3671 C.3     1  UNL1        0.0000
     33 H           6.2617    2.8289    9.8275 H       1  UNL1        0.0000
     34 H           6.7935    4.7034    8.4704 H       1  UNL1        0.0000
     35 H           8.1272    3.6241    7.9990 H       1  UNL1        0.0000
     36 H           6.4326    4.6923    6.1077 H       1  UNL1        0.0000
     37 H           4.0758    3.5041    4.9265 H       1  UNL1        0.0000
     38 H           2.0077    2.3202    5.6460 H       1  UNL1        0.0000
     39 H           1.9049    1.1935    7.8446 H       1  UNL1        0.0000
     40 H           3.8585    1.2587    9.3884 H       1  UNL1        0.0000
     41 H           7.3692    1.7859    6.1941 H       1  UNL1        0.0000
     42 H           6.7508    2.6011    4.7217 H       1  UNL1        0.0000
     43 H          10.1470    5.3802    4.7074 H       1  UNL1        0.0000
     44 H          10.6945    3.9027    3.8903 H       1  UNL1        0.0000
     45 H           9.7409    5.1183    2.9833 H       1  UNL1        0.0000
     46 H           5.2942   -2.0059    9.5211 H       1  UNL1        0.0000
     47 H           3.1733   -2.3923   10.6758 H       1  UNL1        0.0000
     48 H           2.4049   -0.8236   12.4212 H       1  UNL1        0.0000
     49 H           3.8045    1.1253   13.0124 H       1  UNL1        0.0000
     50 H           5.9417    1.4933   11.8742 H       1  UNL1        0.0000
     51 H           8.0343   -0.5932   12.4687 H       1  UNL1        0.0000
     52 H           9.6400    0.1930   14.1542 H       1  UNL1        0.0000
     53 H          11.1212    2.1028   13.6554 H       1  UNL1        0.0000
     54 H          10.9902    3.2120   11.4534 H       1  UNL1        0.0000
     55 H           9.3938    2.4114    9.7674 H       1  UNL1        0.0000
     56 H           9.1274   -2.1038   10.2652 H       1  UNL1        0.0000
     57 H           7.5718   -2.7800    9.7945 H       1  UNL1        0.0000
     58 H           9.0040   -3.1021    8.8166 H       1  UNL1        0.0000
     59 H           9.4128    0.3599    7.4961 H       1  UNL1        0.0000
     60 H          10.2175   -0.3194    8.9079 H       1  UNL1        0.0000
     61 H          10.0524   -1.2841    7.4404 H       1  UNL1        0.0000
     62 H           6.4240   -1.9257    7.6670 H       1  UNL1        0.0000
     63 H           7.1436   -0.5929    6.7701 H       1  UNL1        0.0000
     64 H           7.8975   -2.1877    6.7376 H       1  UNL1        0.0000
@<TRIPOS>BOND
     1    45    16    1
     2    44    16    1
     3    16     4    1
     4    16    43    1
     5     4    15    1
     6    42    14    1
     7    37     9    1
     8    15    14    1
     9    15     3    2
    10    38    10    1
    11    14    41    1
    12    14     7    1
    13     9    10    1
    14     9     8    2
    15    36     7    1
    16    10    11    1
    17     7     8    1
    18     7     6    1
    19    64    32    1
    20    63    32    1
    21     8    13    1
    22    32    62    1
    23    32    29    1
    24    61    31    1
    25    59    31    1
    26    11    39    1
    27    11    12    2
    28     6    35    1
    29     6    34    1
    30     6     5    1
    31    13    12    1
    32    13     5    1
    33    31    29    1
    34    31    60    1
    35    12    40    1
    36     2     5    1
    37     2     1    1
    38    29    30    1
    39    29     1    1
    40     5    33    1
    41    58    30    1
    42    30    57    1
    43    30    56    1
    44    46    18    1
    45     1    17    1
    46     1    23    1
    47    55    28    1
    48    18    17   ar
    49    18    19   ar
    50    17    22   ar
    51    47    19    1
    52    28    23   ar
    53    28    27   ar
    54    19    20   ar
    55    23    24   ar
    56    54    27    1
    57    22    50    1
    58    22    21   ar
    59    27    26   ar
    60    20    21   ar
    61    20    48    1
    62    24    51    1
    63    24    25   ar
    64    21    49    1
    65    26    25   ar
    66    26    53    1
    67    25    52    1
