@<TRIPOS>MOLECULE
6,7,8,9,10,11
 34 36 0 0 0
SMALL
GASTEIGER

@<TRIPOS>ATOM
      1 SI         10.7766    3.3402    2.3369 Si      1  UNL1        0.0000
      2 O          11.1175    2.7442    0.8417 O.3     1  UNL1        0.0000
      3 O          11.6824    4.6145    2.8549 O.3     1  UNL1        0.0000
      4 O          10.1332    2.3536    3.4887 O.3     1  UNL1        0.0000
      5 N          12.6516    2.1637    2.8729 N.3     1  UNL1        0.0000
      6 C           9.1214    4.1675    1.9629 C.3     1  UNL1        0.0000
      7 C           8.3553    4.6656    3.0167 C.3     1  UNL1        0.0000
      8 C           7.0058    5.0456    2.8350 C.2     1  UNL1        0.0000
      9 C           6.4122    4.8961    1.5823 C.2     1  UNL1        0.0000
     10 C           7.1739    4.4068    0.4964 C.3     1  UNL1        0.0000
     11 C           8.5039    4.0378    0.6971 C.3     1  UNL1        0.0000
     12 C          12.0302    1.7177    0.5972 C.3     1  UNL1        0.0000
     13 C          13.2047    1.8386    1.5773 C.3     1  UNL1        0.0000
     14 C          13.0523    4.5247    3.0982 C.3     1  UNL1        0.0000
     15 C          13.3963    3.1326    3.6439 C.3     1  UNL1        0.0000
     16 C          10.8585    1.5144    4.3380 C.3     1  UNL1        0.0000
     17 C          12.1284    1.0392    3.6197 C.3     1  UNL1        0.0000
     18 H           8.8222    4.8102    3.9840 H       1  UNL1        0.0000
     19 H           6.4515    5.4940    3.6535 H       1  UNL1        0.0000
     20 H           5.3897    5.2222    1.4182 H       1  UNL1        0.0000
     21 H           6.7329    4.3666   -0.4942 H       1  UNL1        0.0000
     22 H           9.1060    3.6965   -0.1368 H       1  UNL1        0.0000
     23 H          12.3767    1.8043   -0.4361 H       1  UNL1        0.0000
     24 H          11.5192    0.7556    0.7196 H       1  UNL1        0.0000
     25 H          13.7985    0.9173    1.5896 H       1  UNL1        0.0000
     26 H          13.8412    2.6648    1.2570 H       1  UNL1        0.0000
     27 H          13.3255    5.3004    3.8185 H       1  UNL1        0.0000
     28 H          13.5915    4.7122    2.1613 H       1  UNL1        0.0000
     29 H          14.4794    2.9617    3.6116 H       1  UNL1        0.0000
     30 H          13.0602    3.0754    4.6799 H       1  UNL1        0.0000
     31 H          10.2203    0.6686    4.6035 H       1  UNL1        0.0000
     32 H          11.1115    2.0657    5.2527 H       1  UNL1        0.0000
     33 H          12.8546    0.6317    4.3329 H       1  UNL1        0.0000
     34 H          11.8479    0.2596    2.9110 H       1  UNL1        0.0000
@<TRIPOS>BOND
     1    21    10    1
     2    23    12    1
     3    22    11    1
     4    10    11    1
     5    10     9    1
     6    12    24    1
     7    12     2    1
     8    12    13    1
     9    11     6    1
    10     2     1    1
    11    26    13    1
    12    20     9    1
    13    13    25    1
    14    13     5    1
    15     9     8    2
    16     6     1    1
    17     6     7    1
    18    28    14    1
    19     1     3    1
    20     1     4    1
    21     8     7    1
    22     8    19    1
    23     3    14    1
    24     5    17    1
    25     5    15    1
    26    34    17    1
    27     7    18    1
    28    14    15    1
    29    14    27    1
    30     4    16    1
    31    29    15    1
    32    17    33    1
    33    17    16    1
    34    15    30    1
    35    16    31    1
    36    16    32    1
