@<TRIPOS>MOLECULE
1,2,3,4,5,6
 12 12 0 0 0
SMALL
GASTEIGER

@<TRIPOS>ATOM
      1 C           2.8237    6.8937    2.0066 C.2     1  UNL1       -0.0797
      2 C           2.6858    6.3896    0.6968 C.3     1  UNL1        0.0049
      3 C           3.5866    5.4061    0.2228 C.2     1  UNL1       -0.0797
      4 C           4.5774    4.8921    1.0691 C.2     1  UNL1       -0.0797
      5 C           4.6471    5.3370    2.4088 C.3     1  UNL1        0.0049
      6 C           3.8053    6.3748    2.8660 C.2     1  UNL1       -0.0797
      7 H           2.2221    7.7393    2.3221 H       1  UNL1        0.0575
      8 H           1.9931    6.8610    0.0065 H       1  UNL1        0.0394
      9 H           3.5652    5.1180   -0.8225 H       1  UNL1        0.0575
     10 H           5.3161    4.1953    0.6896 H       1  UNL1        0.0575
     11 H           5.4489    4.9794    3.0484 H       1  UNL1        0.0394
     12 H           3.9592    6.8076    3.8476 H       1  UNL1        0.0575
@<TRIPOS>BOND
     1     9     3    1
     2     8     2    1
     3     3     2    1
     4     3     4    2
     5    10     4    1
     6     2     1    1
     7     4     5    1
     8     1     7    1
     9     1     6    2
    10     5     6    1
    11     5    11    1
    12     6    12    1
