@<TRIPOS>MOLECULE
1,2,3,4,5,6
 21 21 0 0 0
SMALL
GASTEIGER

@<TRIPOS>ATOM
      1 C          11.9997    2.5984    6.1922 C.3     1  UNL1        0.0108
      2 C          11.4585    3.8773    6.0097 C.2     1  UNL1       -0.0678
      3 C          10.1222    3.9572    5.6070 C.2     1  UNL1       -0.0737
      4 C           9.3808    2.8077    5.2514 C.3     1  UNL1        0.0167
      5 C           9.9938    1.5489    5.3044 C.2     1  UNL1       -0.0737
      6 C          11.2832    1.4323    5.8379 C.2     1  UNL1       -0.0678
      7 C          12.2721    5.1111    6.2208 C.3     1  UNL1       -0.0432
      8 C           7.9719    2.9864    4.7926 C.3     1  UNL1       -0.0515
      9 C          11.9408    0.1063    6.0330 C.3     1  UNL1       -0.0432
     10 H          13.0005    2.4905    6.5790 H       1  UNL1        0.0399
     11 H           9.6448    4.9216    5.5282 H       1  UNL1        0.0581
     12 H           9.4505    0.6690    4.9996 H       1  UNL1        0.0581
     13 H          12.7906    5.3712    5.2955 H       1  UNL1        0.0275
     14 H          11.6391    5.9466    6.5018 H       1  UNL1        0.0275
     15 H          13.0190    4.9606    6.9940 H       1  UNL1        0.0275
     16 H           7.9359    3.5729    3.8741 H       1  UNL1        0.0241
     17 H           7.4904    2.0304    4.6137 H       1  UNL1        0.0241
     18 H           7.4171    3.5190    5.5606 H       1  UNL1        0.0241
     19 H          12.2977    0.0375    7.0577 H       1  UNL1        0.0275
     20 H          11.2470   -0.7077    5.8506 H       1  UNL1        0.0275
     21 H          12.7948   -0.0048    5.3641 H       1  UNL1        0.0275
@<TRIPOS>BOND
     1    16     8    1
     2    17     8    1
     3     8     4    1
     4     8    18    1
     5    12     5    1
     6     4     5    1
     7     4     3    1
     8    13     7    1
     9     5     6    2
    10    21     9    1
    11    11     3    1
    12     3     2    2
    13     6     9    1
    14     6     1    1
    15    20     9    1
    16     2     1    1
    17     2     7    1
    18     9    19    1
    19     1    10    1
    20     7    14    1
    21     7    15    1
