@<TRIPOS>MOLECULE
5,6,7,8,9,10
 40 41 0 0 0
SMALL
GASTEIGER

@<TRIPOS>ATOM
      1 SI        -12.7110   -0.7300   -3.6394 Si      1  UNL1        0.0000
      2 O         -10.2395  -13.4200   -0.6292 O.2     1  UNL1        0.0000
      3 O          -8.5606  -12.7781    0.5531 O.2     1  UNL1        0.0000
      4 N          -9.5142  -12.5588   -0.1689 N.pl3   1  UNL1        0.0000
      5 C         -11.3308   -4.2286   -1.7376 C.3     1  UNL1        0.0000
      6 C         -11.6159   -2.9040   -2.0370 C.2     1  UNL1        0.0000
      7 C         -12.3174   -2.5414   -3.2123 C.2     1  UNL1        0.0000
      8 C         -12.7691   -3.5771   -4.0392 C.2     1  UNL1        0.0000
      9 C         -12.4913   -4.9196   -3.7484 C.2     1  UNL1        0.0000
     10 C         -11.7600   -5.2810   -2.5984 C.3     1  UNL1        0.0000
     11 C         -11.5159   -6.6756   -2.3169 C.2     1  UNL1        0.0000
     12 C         -10.6438   -7.1535   -1.4073 C.2     1  UNL1        0.0000
     13 C         -10.3859   -8.5442   -1.1242 C.ar    1  UNL1        0.0000
     14 C          -9.2940   -8.8701   -0.3043 C.ar    1  UNL1        0.0000
     15 C          -8.9997  -10.1769    0.0066 C.ar    1  UNL1        0.0000
     16 C          -9.8052  -11.1957   -0.4960 C.ar    1  UNL1        0.0000
     17 C         -10.8967  -10.8997   -1.3091 C.ar    1  UNL1        0.0000
     18 C         -11.1806   -9.5900   -1.6173 C.ar    1  UNL1        0.0000
     19 C         -14.5615   -0.4494   -3.2555 C.3     1  UNL1        0.0000
     20 C         -12.3376   -0.5064   -5.4934 C.3     1  UNL1        0.0000
     21 C         -11.6106    0.4089   -2.5835 C.3     1  UNL1        0.0000
     22 H         -10.8639   -4.4736   -0.7913 H       1  UNL1        0.0000
     23 H         -11.3398   -2.1307   -1.3301 H       1  UNL1        0.0000
     24 H         -13.3842   -3.3435   -4.9006 H       1  UNL1        0.0000
     25 H         -12.9035   -5.7004   -4.3797 H       1  UNL1        0.0000
     26 H         -12.0749   -7.3690   -2.9326 H       1  UNL1        0.0000
     27 H         -10.0318   -6.4604   -0.8451 H       1  UNL1        0.0000
     28 H          -8.6703   -8.0772    0.0810 H       1  UNL1        0.0000
     29 H          -8.1594  -10.4328    0.6336 H       1  UNL1        0.0000
     30 H         -11.5053  -11.7095   -1.6817 H       1  UNL1        0.0000
     31 H         -12.0355   -9.3728   -2.2375 H       1  UNL1        0.0000
     32 H         -15.1979   -1.1200   -3.8257 H       1  UNL1        0.0000
     33 H         -14.7849   -0.6008   -2.2033 H       1  UNL1        0.0000
     34 H         -14.8496    0.5660   -3.5075 H       1  UNL1        0.0000
     35 H         -13.0577   -1.0248   -6.1195 H       1  UNL1        0.0000
     36 H         -12.3672    0.5422   -5.7712 H       1  UNL1        0.0000
     37 H         -11.3504   -0.8872   -5.7426 H       1  UNL1        0.0000
     38 H         -11.7452    1.4440   -2.8804 H       1  UNL1        0.0000
     39 H         -11.8467    0.3465   -1.5251 H       1  UNL1        0.0000
     40 H         -10.5590    0.1684   -2.7095 H       1  UNL1        0.0000
@<TRIPOS>BOND
     1    35    20    1
     2    36    20    1
     3    37    20    1
     4    20     1    1
     5    24     8    1
     6    25     9    1
     7     8     9    2
     8     8     7    1
     9    32    19    1
    10     9    10    1
    11     1    19    1
    12     1     7    1
    13     1    21    1
    14    34    19    1
    15    19    33    1
    16     7     6    2
    17    26    11    1
    18    38    21    1
    19    40    21    1
    20    10    11    1
    21    10     5    1
    22    21    39    1
    23    11    12    2
    24    31    18    1
    25     6     5    1
    26     6    23    1
    27     5    22    1
    28    30    17    1
    29    18    17   ar
    30    18    13   ar
    31    12    13    1
    32    12    27    1
    33    17    16   ar
    34    13    14   ar
    35     2     4    2
    36    16     4    1
    37    16    15   ar
    38    14    15   ar
    39    14    28    1
    40     4     3    2
    41    15    29    1
