@<TRIPOS>MOLECULE
2,3,4,5,6,7
 56 58 0 0 0
SMALL
GASTEIGER

@<TRIPOS>ATOM
      1 SI         11.6189    7.1353   18.2018 Si      1  UNL1        0.0000
      2 C           9.6437    6.6989   20.3154 C.3     1  UNL1        0.0000
      3 C          10.5812    7.5727   19.7344 C.3     1  UNL1        0.0000
      4 C          10.7096    8.8464   20.3310 C.3     1  UNL1        0.0000
      5 C           9.9851    9.2195   21.4642 C.3     1  UNL1        0.0000
      6 C           9.0891    8.3051   22.0456 C.2     1  UNL1        0.0000
      7 C           8.9505    7.0350   21.4971 C.2     1  UNL1        0.0000
      8 C           9.9128    3.0721   20.0674 C.3     1  UNL1        0.0000
      9 C           8.4169    2.7444   20.1558 C.3     1  UNL1        0.0000
     10 C           9.3947    5.3179   19.7749 C.3     1  UNL1        0.0000
     11 C           7.6588    3.8056   19.3558 C.3     1  UNL1        0.0000
     12 C          10.7391    2.0470   20.8563 C.3     1  UNL1        0.0000
     13 C          10.3594    0.6503   20.3214 C.3     1  UNL1        0.0000
     14 C           8.8289    0.4664   20.3998 C.3     1  UNL1        0.0000
     15 C           7.1570   -0.0419   21.9686 C.3     1  UNL1        0.0000
     16 C          12.2297   -0.7782   20.6176 C.3     1  UNL1        0.0000
     17 C          12.7122    3.1296   21.6023 C.3     1  UNL1        0.0000
     18 C          12.7729    5.6744   18.6297 C.3     1  UNL1        0.0000
     19 C          12.6901    8.6496   17.7536 C.3     1  UNL1        0.0000
     20 C          10.4648    6.7741   16.7208 C.3     1  UNL1        0.0000
     21 O          10.1232    4.3869   20.5460 O.3     1  UNL1        0.0000
     22 O           8.0133    5.0823   19.8391 O.3     1  UNL1        0.0000
     23 O           8.1540    1.4528   19.6513 O.3     1  UNL1        0.0000
     24 O           8.4539    0.4753   21.7364 O.3     1  UNL1        0.0000
     25 O          10.9363   -0.4016   21.0444 O.3     1  UNL1        0.0000
     26 O          12.1217    2.2500   20.6693 O.3     1  UNL1        0.0000
     27 H          11.4475    9.5345   19.9374 H       1  UNL1        0.0000
     28 H          10.1552   10.1831   21.9288 H       1  UNL1        0.0000
     29 H           8.5768    8.5605   22.9662 H       1  UNL1        0.0000
     30 H           8.3217    6.2896   21.9645 H       1  UNL1        0.0000
     31 H          10.2278    3.0196   19.0090 H       1  UNL1        0.0000
     32 H           8.1174    2.8078   21.2126 H       1  UNL1        0.0000
     33 H           9.7248    5.2277   18.7218 H       1  UNL1        0.0000
     34 H           7.9089    3.7089   18.2900 H       1  UNL1        0.0000
     35 H           6.5803    3.7142   19.4825 H       1  UNL1        0.0000
     36 H          10.4820    2.0955   21.9220 H       1  UNL1        0.0000
     37 H          10.6557    0.5984   19.2621 H       1  UNL1        0.0000
     38 H           8.5547   -0.4865   19.9206 H       1  UNL1        0.0000
     39 H           6.9779    0.0629   23.0361 H       1  UNL1        0.0000
     40 H           7.1080   -1.0984   21.6860 H       1  UNL1        0.0000
     41 H           6.4029    0.5161   21.4056 H       1  UNL1        0.0000
     42 H          12.5229   -1.6049   21.2614 H       1  UNL1        0.0000
     43 H          12.9416    0.0436   20.7160 H       1  UNL1        0.0000
     44 H          12.2122   -1.1136   19.5738 H       1  UNL1        0.0000
     45 H          13.7572    3.2173   21.3102 H       1  UNL1        0.0000
     46 H          12.6472    2.7194   22.6167 H       1  UNL1        0.0000
     47 H          12.2359    4.1126   21.5808 H       1  UNL1        0.0000
     48 H          12.2360    4.8366   19.0618 H       1  UNL1        0.0000
     49 H          13.5381    5.9692   19.3426 H       1  UNL1        0.0000
     50 H          13.2804    5.3177   17.7387 H       1  UNL1        0.0000
     51 H          12.0766    9.5101   17.5041 H       1  UNL1        0.0000
     52 H          13.2991    8.4251   16.8839 H       1  UNL1        0.0000
     53 H          13.3681    8.9357   18.5522 H       1  UNL1        0.0000
     54 H           9.4561    7.1391   16.9044 H       1  UNL1        0.0000
     55 H          10.4022    5.7124   16.5005 H       1  UNL1        0.0000
     56 H          10.8291    7.2632   15.8226 H       1  UNL1        0.0000
@<TRIPOS>BOND
     1    56    20    1
     2    55    20    1
     3    20    54    1
     4    20     1    1
     5    52    19    1
     6    51    19    1
     7    50    18    1
     8    19     1    1
     9    19    53    1
    10     1    18    1
    11     1     3    1
    12    34    11    1
    13    18    48    1
    14    18    49    1
    15    33    10    1
    16    31     8    1
    17    37    13    1
    18    11    35    1
    19    11    22    1
    20    11     9    1
    21    44    16    1
    22    23     9    1
    23    23    14    1
    24     3     2    1
    25     3     4    1
    26    10    22    1
    27    10     2    1
    28    10    21    1
    29    38    14    1
    30    27     4    1
    31     8     9    1
    32     8    21    1
    33     8    12    1
    34     9    32    1
    35     2     7    1
    36    13    14    1
    37    13    12    1
    38    13    25    1
    39     4     5    1
    40    14    24    1
    41    16    43    1
    42    16    25    1
    43    16    42    1
    44    26    12    1
    45    26    17    1
    46    12    36    1
    47    45    17    1
    48    41    15    1
    49     5    28    1
    50     5     6    1
    51     7    30    1
    52     7     6    2
    53    47    17    1
    54    17    46    1
    55    40    15    1
    56    24    15    1
    57    15    39    1
    58     6    29    1
