@<TRIPOS>MOLECULE
1,2,3,4,5,6
 15 15 0 0 0
SMALL
GASTEIGER

@<TRIPOS>ATOM
      1 C          11.0508    5.0068    3.4241 C.2     1  UNL1       -0.0543
      2 C          10.2541    4.8977    2.2786 C.2     1  UNL1       -0.0769
      3 C           8.9357    4.4376    2.3868 C.3     1  UNL1       -0.0087
      4 C           8.3620    4.2124    3.6450 C.3     1  UNL1       -0.0090
      5 C           9.1069    4.4570    4.8003 C.2     1  UNL1       -0.0795
      6 C          10.4602    4.7793    4.6824 C.2     1  UNL1       -0.0628
      7 C          12.4972    5.3589    3.3651 C.3     1  UNL1       -0.0400
      8 H          10.6694    5.1223    1.3082 H       1  UNL1        0.0578
      9 H           8.3490    4.2734    1.4992 H       1  UNL1        0.0355
     10 H           7.3438    3.8700    3.7171 H       1  UNL1        0.0355
     11 H           8.6568    4.3495    5.7743 H       1  UNL1        0.0575
     12 H          11.0665    4.8861    5.5671 H       1  UNL1        0.0617
     13 H          12.6887    6.2795    3.9148 H       1  UNL1        0.0277
     14 H          13.0693    4.5606    3.8329 H       1  UNL1        0.0277
     15 H          12.8401    5.4764    2.3427 H       1  UNL1        0.0277
@<TRIPOS>BOND
     1     8     2    1
     2     9     3    1
     3     2     3    1
     4     2     1    2
     5    15     7    1
     6     3     4    1
     7     7     1    1
     8     7    14    1
     9     7    13    1
    10     1     6    1
    11     4    10    1
    12     4     5    1
    13     6     5    2
    14     6    12    1
    15     5    11    1
