@<TRIPOS>MOLECULE
3,4,5,6,7,8
 33 34 0 0 0
SMALL
GASTEIGER

@<TRIPOS>ATOM
      1 SI         -0.8205    6.3458    4.1053 Si      1  UNL1        0.0000
      2 O          -0.0929    5.6590    2.7998 O.3     1  UNL1        0.0000
      3 C           2.7384    6.1299    1.6675 C.2     1  UNL1        0.0000
      4 C           3.6734    6.6966    0.7961 C.2     1  UNL1        0.0000
      5 C           3.4610    6.4433   -0.5675 C.3     1  UNL1        0.0000
      6 C           2.3801    5.6538   -1.0287 C.2     1  UNL1        0.0000
      7 C           1.4542    5.0773   -0.1486 C.2     1  UNL1        0.0000
      8 C           1.6695    5.3595    1.2029 C.3     1  UNL1        0.0000
      9 C           1.1525    5.0858    2.6117 C.3     1  UNL1        0.0000
     10 C           2.3794    5.9333    3.1164 C.3     1  UNL1        0.0000
     11 C           1.2112    3.6337    2.9863 C.2     1  UNL1        0.0000
     12 C           0.1497    2.8928    3.2410 C.2     1  UNL1        0.0000
     13 C          -0.3588    5.4380    5.7243 C.3     1  UNL1        0.0000
     14 C          -0.3429    8.1844    4.2692 C.3     1  UNL1        0.0000
     15 C          -2.6564    6.1565    3.6640 C.3     1  UNL1        0.0000
     16 H           4.5473    7.2393    1.1360 H       1  UNL1        0.0000
     17 H           4.1817    6.8046   -1.2917 H       1  UNL1        0.0000
     18 H           2.3154    5.4371   -2.0890 H       1  UNL1        0.0000
     19 H           0.6715    4.4153   -0.4960 H       1  UNL1        0.0000
     20 H           2.0848    6.8355    3.6463 H       1  UNL1        0.0000
     21 H           3.1032    5.3720    3.7088 H       1  UNL1        0.0000
     22 H           2.2080    3.2119    2.9853 H       1  UNL1        0.0000
     23 H           0.2300    1.8461    3.4784 H       1  UNL1        0.0000
     24 H          -0.8383    3.3189    3.2167 H       1  UNL1        0.0000
     25 H          -0.6760    4.3992    5.7070 H       1  UNL1        0.0000
     26 H           0.7154    5.4430    5.8915 H       1  UNL1        0.0000
     27 H          -0.8235    5.9067    6.5854 H       1  UNL1        0.0000
     28 H           0.6060    8.3393    4.7772 H       1  UNL1        0.0000
     29 H          -0.2726    8.6509    3.2902 H       1  UNL1        0.0000
     30 H          -1.0943    8.7273    4.8336 H       1  UNL1        0.0000
     31 H          -2.8512    6.5800    2.6842 H       1  UNL1        0.0000
     32 H          -2.9759    5.1189    3.6463 H       1  UNL1        0.0000
     33 H          -3.2794    6.6795    4.3811 H       1  UNL1        0.0000
@<TRIPOS>BOND
     1    18     6    1
     2    17     5    1
     3     6     5    1
     4     6     7    2
     5     5     4    1
     6    19     7    1
     7     7     8    1
     8     4    16    1
     9     4     3    2
    10     8     3    1
    11     8     9    1
    12     3    10    1
    13     9     2    1
    14     9    11    1
    15     9    10    1
    16    31    15    1
    17     2     1    1
    18    22    11    1
    19    11    12    2
    20    10    20    1
    21    10    21    1
    22    24    12    1
    23    12    23    1
    24    29    14    1
    25    32    15    1
    26    15     1    1
    27    15    33    1
    28     1    14    1
    29     1    13    1
    30    14    28    1
    31    14    30    1
    32    25    13    1
    33    13    26    1
    34    13    27    1
