@<TRIPOS>MOLECULE
3,4,5,6,7,9
 27 28 0 0 0
SMALL
GASTEIGER

@<TRIPOS>ATOM
      1 C          -1.2348    7.1761    3.3122 C.3     1  UNL1        0.0000
      2 C          -0.1312    7.0933    6.2377 C.3     1  UNL1        0.0000
      3 C           1.0618    5.1835    4.0559 C.3     1  UNL1        0.0000
      4 C           1.3931    4.9122    2.7067 C.2     1  UNL1        0.0000
      5 C           2.4401    3.9716    2.6765 C.2     1  UNL1        0.0000
      6 C           2.7769    3.6551    4.0077 C.2     1  UNL1        0.0000
      7 C           1.9212    4.3787    4.8590 C.2     1  UNL1        0.0000
      8 C          -1.5328    4.5283    4.9901 C.2     1  UNL1        0.0000
      9 C          -0.9785    3.3507    5.6393 C.3     1  UNL1        0.0000
     10 C          -2.0502    2.4219    5.7714 C.2     1  UNL1        0.0000
     11 C          -3.1853    2.9705    5.2022 C.2     1  UNL1        0.0000
     12 C          -2.8724    4.2546    4.7310 C.2     1  UNL1        0.0000
     13 SI         -0.4933    6.0590    4.6715 Si      1  UNL1        0.0000
     14 H          -1.5454    6.6074    2.4414 H       1  UNL1        0.0000
     15 H          -0.5214    7.9262    2.9879 H       1  UNL1        0.0000
     16 H          -2.1070    7.6963    3.6913 H       1  UNL1        0.0000
     17 H          -1.0430    7.5438    6.6150 H       1  UNL1        0.0000
     18 H           0.5727    7.8926    6.0294 H       1  UNL1        0.0000
     19 H           0.2854    6.4836    7.0331 H       1  UNL1        0.0000
     20 H           1.0038    5.4523    1.8523 H       1  UNL1        0.0000
     21 H           3.0006    3.6653    1.8022 H       1  UNL1        0.0000
     22 H           3.6412    3.0865    4.3156 H       1  UNL1        0.0000
     23 H           2.0247    4.4492    5.9364 H       1  UNL1        0.0000
     24 H          -0.1771    3.4185    6.3783 H       1  UNL1        0.0000
     25 H          -2.0034    1.4815    6.3035 H       1  UNL1        0.0000
     26 H          -4.1502    2.4978    5.1347 H       1  UNL1        0.0000
     27 H          -3.5595    4.9241    4.2410 H       1  UNL1        0.0000
@<TRIPOS>BOND
     1    21     5    1
     2    20     4    1
     3    14     1    1
     4     5     4    2
     5     5     6    1
     6     4     3    1
     7    15     1    1
     8     1    16    1
     9     1    13    1
    10     6    22    1
    11     6     7    2
    12     3    13    1
    13     3     7    1
    14    27    12    1
    15    13     8    1
    16    13     2    1
    17    12     8    2
    18    12    11    1
    19     7    23    1
    20     8     9    1
    21    26    11    1
    22    11    10    2
    23     9    10    1
    24     9    24    1
    25    10    25    1
    26    18     2    1
    27     2    17    1
    28     2    19    1
