@<TRIPOS>MOLECULE
4,8,9,10,11,12
 27 28 0 0 0
SMALL
GASTEIGER

@<TRIPOS>ATOM
      1 C           2.6761    0.2198    0.8732 C.3     1  UNL1        0.0000
      2 C           0.5251   -1.7226    2.0497 C.3     1  UNL1        0.0000
      3 C           1.7829    0.5561    3.8737 C.2     1  UNL1        0.0000
      4 C           0.8047    0.9143    4.8888 C.3     1  UNL1        0.0000
      5 C           1.5405    1.1899    6.0771 C.2     1  UNL1        0.0000
      6 C           2.8898    1.0543    5.8047 C.2     1  UNL1        0.0000
      7 C           3.0379    0.6636    4.4652 C.2     1  UNL1        0.0000
      8 C          -0.0643    1.3517    1.8763 C.3     1  UNL1        0.0000
      9 C          -1.3066    1.4159    2.5717 C.2     1  UNL1        0.0000
     10 C          -1.8848    2.6767    2.3340 C.2     1  UNL1        0.0000
     11 C          -1.0013    3.4178    1.5241 C.2     1  UNL1        0.0000
     12 C           0.1113    2.6036    1.2394 C.2     1  UNL1        0.0000
     13 SI          1.2641    0.0377    2.1455 Si      1  UNL1        0.0000
     14 H           3.4139   -0.5605    1.0203 H       1  UNL1        0.0000
     15 H           2.3040    0.1316   -0.1419 H       1  UNL1        0.0000
     16 H           3.1859    1.1739    0.9637 H       1  UNL1        0.0000
     17 H          -0.2774   -1.8599    2.7675 H       1  UNL1        0.0000
     18 H           0.1255   -1.9302    1.0623 H       1  UNL1        0.0000
     19 H           1.2853   -2.4663    2.2634 H       1  UNL1        0.0000
     20 H          -0.1922    0.4689    4.9162 H       1  UNL1        0.0000
     21 H           1.1106    1.3887    7.0493 H       1  UNL1        0.0000
     22 H           3.6947    1.2150    6.5015 H       1  UNL1        0.0000
     23 H           3.9761    0.4793    3.9690 H       1  UNL1        0.0000
     24 H          -1.8064    0.5787    3.0468 H       1  UNL1        0.0000
     25 H          -2.8930    2.9672    2.5875 H       1  UNL1        0.0000
     26 H          -1.2241    4.3774    1.0748 H       1  UNL1        0.0000
     27 H           0.8993    2.8345    0.5331 H       1  UNL1        0.0000
@<TRIPOS>BOND
     1    15     1    1
     2    27    12    1
     3     1    16    1
     4     1    14    1
     5     1    13    1
     6    18     2    1
     7    26    11    1
     8    12    11    2
     9    12     8    1
    10    11    10    1
    11     8    13    1
    12     8     9    1
    13     2    13    1
    14     2    19    1
    15     2    17    1
    16    13     3    1
    17    10     9    2
    18    10    25    1
    19     9    24    1
    20     3     7    2
    21     3     4    1
    22    23     7    1
    23     7     6    1
    24     4    20    1
    25     4     5    1
    26     6     5    2
    27     6    22    1
    28     5    21    1
