@<TRIPOS>MOLECULE
2,12,13,15,17,19
 40 46 0 0 0
SMALL
GASTEIGER

@<TRIPOS>ATOM
      1 C           2.8488    2.8403   -0.3821 C.3     1  UNL1        0.0000
      2 C           3.2166    3.7387    0.9686 C.3     1  UNL1        0.0000
      3 C           1.6310    1.8921   -0.2900 C.3     1  UNL1        0.0000
      4 C           0.5461    2.2344   -1.3286 C.3     1  UNL1        0.0000
      5 H          -0.3466    1.6398   -1.1338 H       1  UNL1        0.0000
      6 H           0.8966    1.9986   -2.3303 H       1  UNL1        0.0000
      7 H           0.2733    3.2854   -1.3090 H       1  UNL1        0.0000
      8 C           2.0075    0.4206   -0.5461 C.3     1  UNL1        0.0000
      9 H           1.1495   -0.2162   -0.3296 H       1  UNL1        0.0000
     10 H           2.8424    0.0949    0.0671 H       1  UNL1        0.0000
     11 H           2.2806    0.2759   -1.5883 H       1  UNL1        0.0000
     12 C           1.0317    2.0058    1.1018 C.3     1  UNL1        0.0000
     13 C           1.3860    1.2355    2.2418 C.3     1  UNL1        0.0000
     14 H           2.0194    0.3593    2.2539 H       1  UNL1        0.0000
     15 C           0.5577    1.6393    3.3213 C.2     1  UNL1        0.0000
     16 H           0.5050    1.1586    4.2893 H       1  UNL1        0.0000
     17 C          -0.2784    2.6782    2.8680 C.2     1  UNL1        0.0000
     18 H          -1.1099    3.1066    3.4143 H       1  UNL1        0.0000
     19 C           0.0129    2.9091    1.4909 C.3     1  UNL1        0.0000
     20 H          -0.5986    3.5028    0.8270 H       1  UNL1        0.0000
     21 B           4.2398    2.4398    0.5174 B       1  UNL1        0.0000
     22 H           4.2098    1.4707    1.1829 H       1  UNL1        0.0000
     23 B           4.2842    2.4155   -1.2462 B       1  UNL1        0.0000
     24 H           4.3137    1.3836   -1.8089 H       1  UNL1        0.0000
     25 B           3.2463    3.7096   -1.8182 B       1  UNL1        0.0000
     26 H           2.5753    3.5548   -2.7714 H       1  UNL1        0.0000
     27 B           2.5754    4.5290   -0.4043 B       1  UNL1        0.0000
     28 H           1.4699    4.9296   -0.3337 H       1  UNL1        0.0000
     29 B           4.9242    3.9563    1.0630 B       1  UNL1        0.0000
     30 H           5.3902    4.0079    2.1433 H       1  UNL1        0.0000
     31 B           5.6295    3.1230   -0.3338 B       1  UNL1        0.0000
     32 H           6.6831    2.5988   -0.2833 H       1  UNL1        0.0000
     33 B           5.0078    3.9339   -1.7981 B       1  UNL1        0.0000
     34 H           5.6242    3.9796   -2.8006 H       1  UNL1        0.0000
     35 B           3.9277    5.2562   -1.2850 B       1  UNL1        0.0000
     36 H           3.7782    6.2440   -1.9083 H       1  UNL1        0.0000
     37 B           3.8994    5.2498    0.4846 B       1  UNL1        0.0000
     38 H           3.6777    6.1749    1.1715 H       1  UNL1        0.0000
     39 B           5.4146    4.8935   -0.3623 B       1  UNL1        0.0000
     40 H           6.3267    5.6367   -0.3256 H       1  UNL1        0.0000
@<TRIPOS>BOND
     1    34    33    1
     2    26    25    1
     3     6     4    1
     4    36    35    1
     5    25    35    1
     6    25    23    1
     7    24    23    1
     8    33    35    1
     9    33    23    1
    10    33    39    1
    11    11     8    1
    12     4     7    1
    13     4     5    1
    14     4     3    1
    15    35    37    1
    16    23    31    1
    17     8     9    1
    18     8     3    1
    19     8    10    1
    20    27     1    1
    21    27    28    1
    22    27    37    1
    23    27     2    1
    24     1     3    1
    25     1    21    1
    26     1     2    1
    27    39    31    1
    28    39    40    1
    29    31    32    1
    30     3    12    1
    31    37    29    1
    32    37    38    1
    33    21     2    1
    34    21    29    1
    35    21    22    1
    36    20    19    1
    37     2    29    1
    38    29    30    1
    39    12    19    1
    40    12    13    1
    41    19    17    1
    42    13    14    1
    43    13    15    1
    44    17    15    2
    45    17    18    1
    46    15    16    1
