@<TRIPOS>MOLECULE
8,9,12,20,28,34
 80 82 0 0 0
SMALL
GASTEIGER

@<TRIPOS>ATOM
      1 O           6.1734    9.6609   11.8782 O.2     1  UNL1        0.0000
      2 C           7.0663    9.6357   12.9670 C.3     1  UNL1        0.0000
      3 H           7.8985   10.3360   12.7880 H       1  UNL1        0.0000
      4 C           6.3751   10.0143   14.2769 C.3     1  UNL1        0.0000
      5 H           5.4791    9.3902   14.4101 H       1  UNL1        0.0000
      6 C           5.9165   11.4697   14.1746 C.3     1  UNL1        0.0000
      7 H           6.8134   12.1081   14.1210 H       1  UNL1        0.0000
      8 C           5.0772   11.5861   12.9173 C.3     1  UNL1        0.0000
      9 C           4.1254   12.6205   12.7763 C.2     1  UNL1        0.0000
     10 O           4.0210   13.6098   13.6910 O.2     1  UNL1        0.0000
     11 H           4.3767   13.2777   14.5377 H       1  UNL1        0.0000
     12 C           3.2856   12.6971   11.6396 C.2     1  UNL1        0.0000
     13 C           2.3785   13.8972   11.5469 C.3     1  UNL1        0.0000
     14 H           1.9582   14.0906   12.5362 H       1  UNL1        0.0000
     15 H           1.5556   13.7128   10.8581 H       1  UNL1        0.0000
     16 C           3.1552   15.1385   11.0990 C.3     1  UNL1        0.0000
     17 H           2.4854   15.9914   11.0243 H       1  UNL1        0.0000
     18 H           3.6202   14.9781   10.1285 H       1  UNL1        0.0000
     19 H           3.9327   15.3721   11.8216 H       1  UNL1        0.0000
     20 C           3.3674   11.6893   10.6601 C.3     1  UNL1        0.0000
     21 C           2.5297   11.6879    9.4088 C.3     1  UNL1        0.0000
     22 H           1.5703   12.1734    9.5858 H       1  UNL1        0.0000
     23 H           2.3334   10.6523    9.1250 H       1  UNL1        0.0000
     24 C           3.2606   12.3767    8.2547 C.3     1  UNL1        0.0000
     25 H           2.6527   12.3433    7.3542 H       1  UNL1        0.0000
     26 H           4.2015   11.8686    8.0587 H       1  UNL1        0.0000
     27 H           3.4676   13.4174    8.4923 H       1  UNL1        0.0000
     28 C           4.3572   10.6795   10.7610 C.2     1  UNL1        0.0000
     29 O           4.4826    9.7972    9.7169 O.2     1  UNL1        0.0000
     30 C           4.3655    8.4169   10.0224 C.3     1  UNL1        0.0000
     31 H           4.2598    7.9158    9.0617 H       1  UNL1        0.0000
     32 H           3.4785    8.2348   10.6415 H       1  UNL1        0.0000
     33 H           5.2523    8.0420   10.5373 H       1  UNL1        0.0000
     34 C           5.2075   10.6330   11.8858 C.2     1  UNL1        0.0000
     35 C           7.6272    8.2196   13.1278 C.3     1  UNL1        0.0000
     36 H           6.7929    7.5083   13.1914 H       1  UNL1        0.0000
     37 H           8.2611    7.9497   12.2814 H       1  UNL1        0.0000
     38 O           8.4532    8.1676   14.2651 O.3     1  UNL1        0.0000
     39 C           7.8309    8.5582   15.4764 C.3     1  UNL1        0.0000
     40 C           6.8073    7.5156   15.9458 C.3     1  UNL1        0.0000
     41 H           6.4807    7.7551   16.9524 H       1  UNL1        0.0000
     42 H           7.2862    6.5402   15.9453 H       1  UNL1        0.0000
     43 H           5.9319    7.4735   15.3046 H       1  UNL1        0.0000
     44 C           8.9593    8.6974   16.4980 C.3     1  UNL1        0.0000
     45 H           8.5587    9.0710   17.4343 H       1  UNL1        0.0000
     46 H           9.6967    9.3979   16.1190 H       1  UNL1        0.0000
     47 H           9.4298    7.7322   16.6506 H       1  UNL1        0.0000
     48 O           7.2656    9.8600   15.3524 O.3     1  UNL1        0.0000
     49 O           5.1463   11.8615   15.2735 O.3     1  UNL1        0.0000
     50 SI          5.5986   12.1041   16.8603 Si      1  UNL1        0.0000
     51 C           7.4610   12.6004   16.8994 C.3     1  UNL1        0.0000
     52 H           7.9863   11.8728   16.2741 H       1  UNL1        0.0000
     53 C           7.7034   13.9863   16.2950 C.3     1  UNL1        0.0000
     54 H           7.2628   14.0711   15.3035 H       1  UNL1        0.0000
     55 H           8.7720   14.1803   16.2078 H       1  UNL1        0.0000
     56 H           7.2718   14.7639   16.9199 H       1  UNL1        0.0000
     57 C           8.0987   12.5254   18.2855 C.3     1  UNL1        0.0000
     58 H           8.0256   11.5188   18.6870 H       1  UNL1        0.0000
     59 H           7.6131   13.2082   18.9778 H       1  UNL1        0.0000
     60 H           9.1533   12.7925   18.2313 H       1  UNL1        0.0000
     61 C           5.2404   10.4953   17.8462 C.3     1  UNL1        0.0000
     62 H           6.1115    9.8440   17.7201 H       1  UNL1        0.0000
     63 C           4.0218    9.7465   17.3013 C.3     1  UNL1        0.0000
     64 H           4.1095    9.5674   16.2340 H       1  UNL1        0.0000
     65 H           3.1128   10.3182   17.4602 H       1  UNL1        0.0000
     66 H           3.9104    8.7863   17.8031 H       1  UNL1        0.0000
     67 C           5.0583   10.7224   19.3466 C.3     1  UNL1        0.0000
     68 H           5.8952   11.2694   19.7714 H       1  UNL1        0.0000
     69 H           4.9744    9.7681   19.8650 H       1  UNL1        0.0000
     70 H           4.1478   11.2835   19.5376 H       1  UNL1        0.0000
     71 C           4.4637   13.6088   17.2696 C.3     1  UNL1        0.0000
     72 H           4.6435   14.3764   16.5057 H       1  UNL1        0.0000
     73 C           4.7704   14.2540   18.6204 C.3     1  UNL1        0.0000
     74 H           5.7968   14.6057   18.6679 H       1  UNL1        0.0000
     75 H           4.6162   13.5489   19.4312 H       1  UNL1        0.0000
     76 H           4.1138   15.1071   18.7859 H       1  UNL1        0.0000
     77 C           2.9752   13.2592   17.2093 C.3     1  UNL1        0.0000
     78 H           2.7217   12.7513   16.2845 H       1  UNL1        0.0000
     79 H           2.3717   14.1628   17.2816 H       1  UNL1        0.0000
     80 H           2.7038   12.6107   18.0377 H       1  UNL1        0.0000
@<TRIPOS>BOND
     1    25    24    1
     2    26    24    1
     3    24    27    1
     4    24    21    1
     5    31    30    1
     6    23    21    1
     7    21    22    1
     8    21    20    1
     9    29    30    1
    10    29    28    1
    11    30    33    1
    12    30    32    1
    13    18    16    1
    14    20    28    1
    15    20    12    1
    16    28    34    2
    17    15    13    1
    18    17    16    1
    19    16    13    1
    20    16    19    1
    21    13    12    1
    22    13    14    1
    23    12     9    2
    24     1    34    1
    25     1     2    1
    26    34     8    1
    27    37    35    1
    28     9     8    1
    29     9    10    1
    30     3     2    1
    31     8     6    1
    32     2    35    1
    33     2     4    1
    34    35    36    1
    35    35    38    1
    36    10    11    1
    37     7     6    1
    38     6     4    1
    39     6    49    1
    40    38    39    1
    41     4     5    1
    42     4    48    1
    43    49    50    1
    44    54    53    1
    45    43    40    1
    46    48    39    1
    47    39    40    1
    48    39    44    1
    49    42    40    1
    50    40    41    1
    51    46    44    1
    52    55    53    1
    53    64    63    1
    54    52    51    1
    55    78    77    1
    56    53    51    1
    57    53    56    1
    58    44    47    1
    59    44    45    1
    60    72    71    1
    61    50    51    1
    62    50    71    1
    63    50    61    1
    64    51    57    1
    65    77    71    1
    66    77    79    1
    67    77    80    1
    68    71    73    1
    69    63    65    1
    70    63    66    1
    71    63    61    1
    72    62    61    1
    73    61    67    1
    74    60    57    1
    75    57    58    1
    76    57    59    1
    77    73    74    1
    78    73    76    1
    79    73    75    1
    80    67    70    1
    81    67    68    1
    82    67    69    1
