@<TRIPOS>MOLECULE
2,4,6,7,9,11
 24 24 0 0 0
SMALL
GASTEIGER

@<TRIPOS>ATOM
      1 SI         -2.0155   17.5212   17.1863 Si      1  UNL1        0.0000
      2 C          -1.2265   13.8334   15.4451 C.2     1  UNL1        0.0000
      3 H          -0.4875   13.0538   15.5978 H       1  UNL1        0.0000
      4 C          -1.0346   15.1059   15.9798 C.3     1  UNL1        0.0000
      5 H          -0.1416   15.3053   16.5632 H       1  UNL1        0.0000
      6 C          -2.0598   16.0909   15.9453 C.3     1  UNL1        0.0000
      7 C          -3.2209   15.7783   15.2307 C.2     1  UNL1        0.0000
      8 H          -4.0588   16.4680   15.2573 H       1  UNL1        0.0000
      9 C          -3.4127   14.5152   14.6329 C.2     1  UNL1        0.0000
     10 H          -4.3733   14.2708   14.1895 H       1  UNL1        0.0000
     11 C          -2.4231   13.5402   14.7582 C.2     1  UNL1        0.0000
     12 H          -2.6160   12.5278   14.4185 H       1  UNL1        0.0000
     13 C          -2.3723   16.6846   18.8722 C.3     1  UNL1        0.0000
     14 H          -1.5940   15.9726   19.1327 H       1  UNL1        0.0000
     15 H          -3.3170   16.1473   18.8647 H       1  UNL1        0.0000
     16 H          -2.4210   17.4226   19.6670 H       1  UNL1        0.0000
     17 C          -0.3272   18.3936   17.2939 C.3     1  UNL1        0.0000
     18 H           0.4850   17.6770   17.3730 H       1  UNL1        0.0000
     19 H          -0.2887   19.0323   18.1713 H       1  UNL1        0.0000
     20 H          -0.1327   19.0120   16.4238 H       1  UNL1        0.0000
     21 C          -3.4053   18.7850   16.8421 C.3     1  UNL1        0.0000
     22 H          -4.3865   18.3547   17.0220 H       1  UNL1        0.0000
     23 H          -3.3866   19.1578   15.8233 H       1  UNL1        0.0000
     24 H          -3.3016   19.6389   17.5042 H       1  UNL1        0.0000
@<TRIPOS>BOND
     1    10     9    1
     2    12    11    1
     3     9    11    1
     4     9     7    2
     5    11     2    2
     6     7     8    1
     7     7     6    1
     8     2     3    1
     9     2     4    1
    10    23    21    1
    11     6     4    1
    12     6     1    1
    13     4     5    1
    14    20    17    1
    15    21    22    1
    16    21     1    1
    17    21    24    1
    18     1    17    1
    19     1    13    1
    20    17    18    1
    21    17    19    1
    22    15    13    1
    23    13    14    1
    24    13    16    1
