@<TRIPOS>MOLECULE
1,2,3,4,5,6
 30 30 0 0 0
SMALL
GASTEIGER

@<TRIPOS>ATOM
      1 C          11.4414    1.6128   10.2686 C.3     1  UNL1        0.0089
      2 C          10.6967    0.4606   10.6557 C.3     1  UNL1        0.0089
      3 C           9.3952    0.2554   10.1216 C.2     1  UNL1       -0.0619
      4 C           8.7992    1.2202    9.2823 C.2     1  UNL1       -0.0480
      5 C           9.5378    2.3910    8.9200 C.2     1  UNL1       -0.0480
      6 C          10.8871    2.5386    9.3382 C.2     1  UNL1       -0.0619
      7 C          12.8768    1.7742   10.7024 C.3     1  UNL1       -0.0542
      8 C          11.3481   -0.6682   11.4141 C.3     1  UNL1       -0.0542
      9 C           8.7185   -1.0733   10.3274 C.3     1  UNL1       -0.0427
     10 C           7.4996    0.8735    8.6016 C.3     1  UNL1       -0.0395
     11 C           8.9672    3.3472    7.9060 C.3     1  UNL1       -0.0395
     12 C          11.7959    3.5505    8.6837 C.3     1  UNL1       -0.0427
     13 H          13.0167    1.4640   11.7355 H       1  UNL1        0.0239
     14 H          13.5293    1.1688   10.0712 H       1  UNL1        0.0239
     15 H          13.1958    2.8093   10.6281 H       1  UNL1        0.0239
     16 H          10.7892   -0.9240   12.3138 H       1  UNL1        0.0239
     17 H          11.3854   -1.5552   10.7809 H       1  UNL1        0.0239
     18 H          12.3635   -0.4333   11.7112 H       1  UNL1        0.0239
     19 H           8.9818   -1.5242   11.2792 H       1  UNL1        0.0275
     20 H           7.6361   -0.9981   10.2768 H       1  UNL1        0.0275
     21 H           9.0378   -1.7549    9.5365 H       1  UNL1        0.0275
     22 H           6.7051    0.6730    9.3198 H       1  UNL1        0.0278
     23 H           7.1560    1.6589    7.9402 H       1  UNL1        0.0278
     24 H           7.6401   -0.0269    8.0021 H       1  UNL1        0.0278
     25 H           7.9003    3.4841    8.0472 H       1  UNL1        0.0278
     26 H           9.4255    4.3266    7.9839 H       1  UNL1        0.0278
     27 H           9.1358    2.9594    6.8998 H       1  UNL1        0.0278
     28 H          11.9450    4.4300    9.3096 H       1  UNL1        0.0275
     29 H          12.7683    3.1019    8.4917 H       1  UNL1        0.0275
     30 H          11.3995    3.8779    7.7284 H       1  UNL1        0.0275
@<TRIPOS>BOND
     1    27    11    1
     2    30    12    1
     3    11    26    1
     4    11    25    1
     5    11     5    1
     6    23    10    1
     7    24    10    1
     8    29    12    1
     9    10     4    1
    10    10    22    1
    11    12    28    1
    12    12     6    1
    13     5     4    1
    14     5     6    2
    15     4     3    2
    16     6     1    1
    17    21     9    1
    18    14     7    1
    19     3     9    1
    20     3     2    1
    21     1     2    1
    22     1     7    1
    23    20     9    1
    24     9    19    1
    25    15     7    1
    26     2     8    1
    27     7    13    1
    28    17     8    1
    29     8    18    1
    30     8    16    1
