@<TRIPOS>MOLECULE
1,2,3,4,5,6
 30 30 0 0 0
SMALL
GASTEIGER

@<TRIPOS>ATOM
      1 C          14.5160    4.2197   11.6077 C.2     1  UNL1       -0.0618
      2 C          14.2712    3.1549   12.5265 C.2     1  UNL1       -0.0618
      3 C          15.3342    2.2610   12.8520 C.3     1  UNL1        0.0225
      4 C          16.6453    2.4947   12.3214 C.2     1  UNL1       -0.0618
      5 C          16.8157    3.4173   11.2757 C.2     1  UNL1       -0.0618
      6 C          15.7146    4.2429   10.8675 C.3     1  UNL1        0.0225
      7 C          13.5324    5.3579   11.5186 C.3     1  UNL1       -0.0427
      8 C          12.9804    3.1383   13.3010 C.3     1  UNL1       -0.0427
      9 C          15.1714    1.2406   13.9487 C.3     1  UNL1       -0.0510
     10 C          17.8211    1.7907   12.9443 C.3     1  UNL1       -0.0427
     11 C          18.1964    3.6756   10.7361 C.3     1  UNL1       -0.0427
     12 C          15.9260    5.2935    9.8063 C.3     1  UNL1       -0.0510
     13 H          13.0968    5.5427   12.4976 H       1  UNL1        0.0275
     14 H          14.0262    6.2730   11.2033 H       1  UNL1        0.0275
     15 H          12.7147    5.1547   10.8256 H       1  UNL1        0.0275
     16 H          13.0686    3.7871   14.1745 H       1  UNL1        0.0275
     17 H          12.1499    3.4870   12.6932 H       1  UNL1        0.0275
     18 H          12.7317    2.1431   13.6529 H       1  UNL1        0.0275
     19 H          15.3733    1.7027   14.9165 H       1  UNL1        0.0242
     20 H          14.1643    0.8342   13.9779 H       1  UNL1        0.0242
     21 H          15.8550    0.4062   13.8152 H       1  UNL1        0.0242
     22 H          17.7062    1.7665   14.0259 H       1  UNL1        0.0275
     23 H          17.9032    0.7619   12.5924 H       1  UNL1        0.0275
     24 H          18.7534    2.2997   12.7233 H       1  UNL1        0.0275
     25 H          18.7413    4.3067   11.4410 H       1  UNL1        0.0275
     26 H          18.7543    2.7513   10.6065 H       1  UNL1        0.0275
     27 H          18.1797    4.1912    9.7831 H       1  UNL1        0.0275
     28 H          16.4969    6.1329   10.2062 H       1  UNL1        0.0242
     29 H          16.4727    4.8868    8.9576 H       1  UNL1        0.0242
     30 H          14.9808    5.6683    9.4240 H       1  UNL1        0.0242
@<TRIPOS>BOND
     1    29    12    1
     2    30    12    1
     3    27    11    1
     4    12    28    1
     5    12     6    1
     6    26    11    1
     7    11     5    1
     8    11    25    1
     9    15     7    1
    10     6     5    1
    11     6     1    1
    12    14     7    1
    13     5     4    2
    14     7     1    1
    15     7    13    1
    16     1     2    2
    17     4     3    1
    18     4    10    1
    19     2     3    1
    20     2     8    1
    21    23    10    1
    22    17     8    1
    23    24    10    1
    24     3     9    1
    25    10    22    1
    26     8    18    1
    27     8    16    1
    28    21     9    1
    29     9    20    1
    30     9    19    1
