@<TRIPOS>MOLECULE
3,28,29,30,31,32
 48 50 0 0 0
SMALL
GASTEIGER

@<TRIPOS>ATOM
      1 N           8.3374    7.9454    2.6380 N.pl3   1  UNL1       -0.3107
      2 N           8.3217    8.7243    4.6279 N.pl3   1  UNL1       -0.3002
      3 C           8.9585    7.8275    3.8353 C.3     1  UNL1        0.1868
      4 C           8.6640    7.2096    1.4475 C.3     1  UNL1        0.0024
      5 H           9.1793    7.8525    0.7297 H       1  UNL1        0.0428
      6 H           7.7534    6.8273    0.9833 H       1  UNL1        0.0428
      7 H           9.3166    6.3764    1.7105 H       1  UNL1        0.0428
      8 C           7.3328    9.3762    3.9464 C.2     1  UNL1        0.0085
      9 H           6.7159   10.1290    4.3912 H       1  UNL1        0.0793
     10 C           7.3462    8.8882    2.6839 C.2     1  UNL1        0.0076
     11 H           6.7411    9.1323    1.8351 H       1  UNL1        0.0793
     12 C           8.1851   10.2354    6.5484 C.ar    1  UNL1       -0.0267
     13 C           9.1255   11.2568    6.6150 C.ar    1  UNL1       -0.0568
     14 H          10.1429   11.0592    6.3106 H       1  UNL1        0.0621
     15 C           6.8802   10.5004    6.9498 C.ar    1  UNL1       -0.0568
     16 H           6.1319    9.7226    6.9161 H       1  UNL1        0.0621
     17 C           7.4682   12.7715    7.4575 C.ar    1  UNL1       -0.0617
     18 H           7.1891   13.7533    7.8095 H       1  UNL1        0.0618
     19 C           8.7708   12.5162    7.0641 C.ar    1  UNL1       -0.0614
     20 H           9.5132   13.2990    7.1087 H       1  UNL1        0.0618
     21 C           6.5254   11.7597    7.4011 C.ar    1  UNL1       -0.0614
     22 H           5.5080   11.9501    7.7101 H       1  UNL1        0.0618
     23 C           8.6110    8.8781    6.0445 C.3     1  UNL1        0.0541
     24 H           9.7045    8.7892    6.1468 H       1  UNL1        0.0553
     25 C           7.9670    7.6986    6.8173 C.3     1  UNL1       -0.0081
     26 H           8.0628    7.9028    7.8860 H       1  UNL1        0.0332
     27 H           6.9025    7.6465    6.5793 H       1  UNL1        0.0332
     28 C           8.6310    6.3994    6.4743 C.2     1  UNL1       -0.0606
     29 C           9.8122    5.8982    7.0862 C.3     1  UNL1        0.0056
     30 C          10.0751    4.6177    6.5354 C.3     1  UNL1       -0.0053
     31 C           9.0705    4.3427    5.5663 C.3     1  UNL1        0.0053
     32 C           8.1837    5.4470    5.5256 C.2     1  UNL1       -0.0654
     33 C          10.4842    6.4722    8.3061 C.3     1  UNL1       -0.0545
     34 H          10.3249    7.5464    8.3859 H       1  UNL1        0.0239
     35 H          11.5581    6.2896    8.2913 H       1  UNL1        0.0239
     36 H          10.0825    6.0055    9.2097 H       1  UNL1        0.0239
     37 C          11.0480    3.6109    7.0838 C.3     1  UNL1       -0.0574
     38 H          10.5512    2.9728    7.8197 H       1  UNL1        0.0236
     39 H          11.8846    4.0990    7.5816 H       1  UNL1        0.0236
     40 H          11.4415    2.9687    6.2976 H       1  UNL1        0.0236
     41 C           8.8195    3.0042    4.9292 C.3     1  UNL1       -0.0545
     42 H           9.7515    2.4989    4.6866 H       1  UNL1        0.0239
     43 H           8.2336    3.1044    4.0166 H       1  UNL1        0.0239
     44 H           8.2579    2.3641    5.6152 H       1  UNL1        0.0239
     45 C           6.8847    5.4706    4.7647 C.3     1  UNL1       -0.0429
     46 H           7.0180    5.1245    3.7386 H       1  UNL1        0.0275
     47 H           6.4543    6.4703    4.7289 H       1  UNL1        0.0275
     48 H           6.1557    4.8106    5.2418 H       1  UNL1        0.0275
@<TRIPOS>BOND
     1     5     4    1
     2     6     4    1
     3     4     7    1
     4     4     1    1
     5    11    10    1
     6     1    10    1
     7     1     3    1
     8    10     8    2
     9    46    45    1
    10     3     2    1
    11     8     9    1
    12     8     2    1
    13    43    41    1
    14     2    23    1
    15    42    41    1
    16    47    45    1
    17    45    48    1
    18    45    32    1
    19    41    31    1
    20    41    44    1
    21    32    31    1
    22    32    28    2
    23    31    30    1
    24    23    24    1
    25    23    12    1
    26    23    25    1
    27    40    37    1
    28    14    13    1
    29    28    25    1
    30    28    29    1
    31    30    37    1
    32    30    29    1
    33    12    13   ar
    34    12    15   ar
    35    27    25    1
    36    13    19   ar
    37    25    26    1
    38    16    15    1
    39    15    21   ar
    40    19    20    1
    41    19    17   ar
    42    37    39    1
    43    37    38    1
    44    29    33    1
    45    21    17   ar
    46    21    22    1
    47    17    18    1
    48    35    33    1
    49    33    34    1
    50    33    36    1
