@<TRIPOS>MOLECULE
1,2,3,4,5,6
 12 12 0 0 0
SMALL
GASTEIGER

@<TRIPOS>ATOM
      1 C           4.5927    5.2093    5.2060 C.3     1  UNL1        0.1888
      2 C           5.8083    5.6356    4.6822 C.2     1  UNL1       -0.0405
      3 C           6.1408    5.2677    3.3714 C.2     1  UNL1       -0.0405
      4 C           5.1670    4.6312    2.5839 C.3     1  UNL1        0.1888
      5 C           3.9034    4.3178    3.0723 C.2     1  UNL1       -0.0405
      6 C           3.6362    4.5322    4.4313 C.2     1  UNL1       -0.0405
      7 F           4.2954    5.4922    6.4824 F       1  UNL1       -0.2289
      8 F           5.4583    4.3625    1.3031 F       1  UNL1       -0.2289
      9 H           6.4760    6.2373    5.2831 H       1  UNL1        0.0606
     10 H           7.0705    5.5875    2.9213 H       1  UNL1        0.0606
     11 H           3.1502    3.9167    2.4085 H       1  UNL1        0.0606
     12 H           2.6636    4.3133    4.8498 H       1  UNL1        0.0606
@<TRIPOS>BOND
     1     8     4    1
     2    11     5    1
     3     4     5    1
     4     4     3    1
     5    10     3    1
     6     5     6    2
     7     3     2    2
     8     6    12    1
     9     6     1    1
    10     2     1    1
    11     2     9    1
    12     1     7    1
