@<TRIPOS>MOLECULE
1,7,15,23,47,65
 86 90 0 0 0
SMALL
GASTEIGER

@<TRIPOS>ATOM
      1 C           1.4925    4.2223    9.4508 C.2     1  UNL1        0.0000
      2 O           2.0716    3.9731    8.2259 O.2     1  UNL1        0.0000
      3 C           3.1675    4.8045    7.8752 C.3     1  UNL1        0.0000
      4 H           3.4464    4.5062    6.8664 H       1  UNL1        0.0000
      5 H           4.0161    4.6585    8.5462 H       1  UNL1        0.0000
      6 H           2.8694    5.8601    7.8886 H       1  UNL1        0.0000
      7 C           0.2079    4.8025    9.4449 C.3     1  UNL1        0.0000
      8 C          -0.4330    5.0878    8.1099 C.3     1  UNL1        0.0000
      9 H           0.3320    5.4372    7.4147 H       1  UNL1        0.0000
     10 H          -1.1796    5.8765    8.2042 H       1  UNL1        0.0000
     11 C          -1.0678    3.8194    7.5326 C.3     1  UNL1        0.0000
     12 H          -1.5437    4.0364    6.5795 H       1  UNL1        0.0000
     13 H          -1.8176    3.4124    8.2091 H       1  UNL1        0.0000
     14 H          -0.3007    3.0653    7.3730 H       1  UNL1        0.0000
     15 C          -0.5327    4.8790   10.6557 C.2     1  UNL1        0.0000
     16 C          -1.9694    5.3321   10.6912 C.3     1  UNL1        0.0000
     17 H          -2.4873    4.8015   11.4913 H       1  UNL1        0.0000
     18 H          -2.4728    5.0991    9.7530 H       1  UNL1        0.0000
     19 C          -2.0639    6.8347   10.9692 C.3     1  UNL1        0.0000
     20 H          -3.1061    7.1421   11.0198 H       1  UNL1        0.0000
     21 H          -1.5671    7.4067   10.1884 H       1  UNL1        0.0000
     22 H          -1.5833    7.0709   11.9160 H       1  UNL1        0.0000
     23 C           0.1093    4.5976   11.8645 C.2     1  UNL1        0.0000
     24 O          -0.6407    4.5920   13.0033 O.2     1  UNL1        0.0000
     25 SI         -1.3097    3.2659   13.7284 Si      1  UNL1        0.0000
     26 C          -0.0052    2.0833   14.4639 C.3     1  UNL1        0.0000
     27 H           0.6854    1.7361   13.6994 H       1  UNL1        0.0000
     28 H          -0.4763    1.2062   14.8961 H       1  UNL1        0.0000
     29 H           0.5894    2.5546   15.2401 H       1  UNL1        0.0000
     30 C          -2.2778    2.2273   12.4433 C.3     1  UNL1        0.0000
     31 H          -3.2563    2.6388   12.2142 H       1  UNL1        0.0000
     32 H          -2.4323    1.2129   12.7961 H       1  UNL1        0.0000
     33 H          -1.7259    2.1635   11.5080 H       1  UNL1        0.0000
     34 C          -2.4318    4.0617   15.0645 C.3     1  UNL1        0.0000
     35 C          -3.5049    4.9547   14.4357 C.3     1  UNL1        0.0000
     36 H          -3.0485    5.7572   13.8619 H       1  UNL1        0.0000
     37 H          -4.1235    5.4025   15.2128 H       1  UNL1        0.0000
     38 H          -4.1555    4.3815   13.7786 H       1  UNL1        0.0000
     39 C          -1.6063    4.9117   16.0335 C.3     1  UNL1        0.0000
     40 H          -1.1320    5.7377   15.5099 H       1  UNL1        0.0000
     41 H          -0.8334    4.3161   16.5136 H       1  UNL1        0.0000
     42 H          -2.2478    5.3267   16.8103 H       1  UNL1        0.0000
     43 C          -3.1202    2.9476   15.8528 C.3     1  UNL1        0.0000
     44 H          -3.7184    2.3205   15.1961 H       1  UNL1        0.0000
     45 H          -3.7774    3.3690   16.6124 H       1  UNL1        0.0000
     46 H          -2.3874    2.3178   16.3503 H       1  UNL1        0.0000
     47 C           1.4843    4.1951   11.9106 C.3     1  UNL1        0.0000
     48 C           2.2414    4.1112   13.1376 C.ar    1  UNL1        0.0000
     49 C           1.8410    4.7570   14.3194 C.ar    1  UNL1        0.0000
     50 H           0.9421    5.3479   14.3241 H       1  UNL1        0.0000
     51 C           2.6033    4.6925   15.4596 C.ar    1  UNL1        0.0000
     52 H           2.2787    5.2122   16.3488 H       1  UNL1        0.0000
     53 C           3.8001    3.9769   15.4717 C.ar    1  UNL1        0.0000
     54 H           4.3878    3.9201   16.3757 H       1  UNL1        0.0000
     55 C           4.2430    3.3787   14.3196 C.ar    1  UNL1        0.0000
     56 H           5.1898    2.8604   14.3018 H       1  UNL1        0.0000
     57 C           3.4922    3.4512   13.1363 C.ar    1  UNL1        0.0000
     58 C           3.9943    2.8959   11.9192 C.2     1  UNL1        0.0000
     59 C           3.3479    3.1072   10.7363 C.2     1  UNL1        0.0000
     60 O           3.8990    2.5833    9.5788 O.2     1  UNL1        0.0000
     61 C           3.3548    1.3391    9.1999 C.3     1  UNL1        0.0000
     62 H           3.8796    1.0451    8.2933 H       1  UNL1        0.0000
     63 H           2.2828    1.4183    8.9867 H       1  UNL1        0.0000
     64 H           3.5166    0.5832    9.9777 H       1  UNL1        0.0000
     65 C           2.1163    3.8456   10.6787 C.2     1  UNL1        0.0000
     66 C           5.3006    2.2021   11.8833 C.ar    1  UNL1        0.0000
     67 C           6.3621    2.8955   11.3189 C.ar    1  UNL1        0.0000
     68 O           6.0883    4.1605   10.9092 O.3     1  UNL1        0.0000
     69 C           7.0979    4.9306   10.3049 C.3     1  UNL1        0.0000
     70 H           6.6282    5.8862   10.0759 H       1  UNL1        0.0000
     71 H           7.4572    4.4688    9.3795 H       1  UNL1        0.0000
     72 H           7.9409    5.0960   10.9839 H       1  UNL1        0.0000
     73 C           7.6235    2.2794   11.2268 C.ar    1  UNL1        0.0000
     74 H           8.4530    2.8109   10.7873 H       1  UNL1        0.0000
     75 C           7.8056    1.0052   11.6896 C.ar    1  UNL1        0.0000
     76 H           8.7771    0.5386   11.6123 H       1  UNL1        0.0000
     77 C           6.7496    0.2767   12.2686 C.ar    1  UNL1        0.0000
     78 C           6.9172   -1.0386   12.7493 C.ar    1  UNL1        0.0000
     79 H           7.8937   -1.4957   12.6734 H       1  UNL1        0.0000
     80 C           5.8697   -1.7224   13.2982 C.ar    1  UNL1        0.0000
     81 H           6.0052   -2.7293   13.6646 H       1  UNL1        0.0000
     82 C           4.6044   -1.1198   13.3902 C.ar    1  UNL1        0.0000
     83 H           3.7854   -1.6734   13.8261 H       1  UNL1        0.0000
     84 C           4.4077    0.1526   12.9351 C.ar    1  UNL1        0.0000
     85 H           3.4347    0.6175   13.0092 H       1  UNL1        0.0000
     86 C           5.4713    0.8888   12.3654 C.ar    1  UNL1        0.0000
@<TRIPOS>BOND
     1    12    11    1
     2     4     3    1
     3    14    11    1
     4     9     8    1
     5    11     8    1
     6    11    13    1
     7     3     6    1
     8     3     2    1
     9     3     5    1
    10     8    10    1
    11     8     7    1
    12     2     1    1
    13    62    61    1
    14    63    61    1
    15    61    60    1
    16    61    64    1
    17    71    69    1
    18     7     1    1
    19     7    15    1
    20     1    65    2
    21    60    59    1
    22    18    16    1
    23    70    69    1
    24    21    19    1
    25    69    68    1
    26    69    72    1
    27    15    16    1
    28    15    23    2
    29    65    59    1
    30    65    47    1
    31    16    19    1
    32    16    17    1
    33    59    58    2
    34    74    73    1
    35    68    67    1
    36    19    20    1
    37    19    22    1
    38    73    67   ar
    39    73    75   ar
    40    67    66   ar
    41    33    30    1
    42    76    75    1
    43    75    77   ar
    44    23    47    1
    45    23    24    1
    46    66    58    1
    47    66    86   ar
    48    47    48    1
    49    58    57    1
    50    31    30    1
    51    77    86   ar
    52    77    78   ar
    53    86    84   ar
    54    30    32    1
    55    30    25    1
    56    79    78    1
    57    78    80   ar
    58    84    85    1
    59    84    82   ar
    60    24    25    1
    61    57    48   ar
    62    57    55   ar
    63    48    49   ar
    64    80    82   ar
    65    80    81    1
    66    82    83    1
    67    27    26    1
    68    25    26    1
    69    25    34    1
    70    38    35    1
    71    36    35    1
    72    56    55    1
    73    49    50    1
    74    49    51   ar
    75    55    53   ar
    76    35    34    1
    77    35    37    1
    78    26    28    1
    79    26    29    1
    80    34    43    1
    81    34    39    1
    82    44    43    1
    83    51    53   ar
    84    51    52    1
    85    53    54    1
    86    40    39    1
    87    43    46    1
    88    43    45    1
    89    39    41    1
    90    39    42    1
