@<TRIPOS>MOLECULE
8,9,10,11,12,13
 53 54 0 0 0
SMALL
GASTEIGER

@<TRIPOS>ATOM
      1 SI          4.4819    8.8647   -5.1467 Si      1  UNL1        0.0000
      2 SI          2.2290    5.0738   -4.9573 Si      1  UNL1        0.0000
      3 O           2.3488    9.5223   -2.8284 O.3     1  UNL1        0.0000
      4 C           2.8255    8.1964   -2.8747 C.3     1  UNL1        0.0000
      5 C           3.1770    7.7239   -4.2986 C.3     1  UNL1        0.0000
      6 C           3.6088    6.2383   -4.2810 C.3     1  UNL1        0.0000
      7 C           4.0615    5.7639   -2.8829 C.3     1  UNL1        0.0000
      8 C           5.9794    6.7038   -1.4649 C.2     1  UNL1        0.0000
      9 C           6.5531    7.7815   -0.7914 C.2     1  UNL1        0.0000
     10 C           5.8932    9.0281   -0.7554 C.2     1  UNL1        0.0000
     11 C           4.6607    9.1808   -1.3862 C.2     1  UNL1        0.0000
     12 C           4.0764    8.0870   -2.0545 C.3     1  UNL1        0.0000
     13 C           4.7302    6.8506   -2.1007 C.3     1  UNL1        0.0000
     14 C           0.9822    9.6789   -3.1358 C.3     1  UNL1        0.0000
     15 C           0.5916   11.1194   -2.8481 C.3     1  UNL1        0.0000
     16 C           4.4974    8.3458   -6.9859 C.3     1  UNL1        0.0000
     17 C           6.2486    8.6048   -4.4629 C.3     1  UNL1        0.0000
     18 C           4.0458   10.7170   -5.0651 C.3     1  UNL1        0.0000
     19 C           1.9569    5.4537   -6.8061 C.3     1  UNL1        0.0000
     20 C           2.7878    3.2625   -4.7546 C.3     1  UNL1        0.0000
     21 C           0.6082    5.3573   -3.9920 C.3     1  UNL1        0.0000
     22 H           2.0549    7.5245   -2.4550 H       1  UNL1        0.0000
     23 H           2.2596    7.8122   -4.8883 H       1  UNL1        0.0000
     24 H           4.4785    6.1401   -4.9378 H       1  UNL1        0.0000
     25 H           3.1877    5.4311   -2.3142 H       1  UNL1        0.0000
     26 H           4.7212    4.9009   -2.9902 H       1  UNL1        0.0000
     27 H           6.5197    5.7679   -1.5554 H       1  UNL1        0.0000
     28 H           7.5434    7.6872   -0.3611 H       1  UNL1        0.0000
     29 H           6.3812    9.8797   -0.2961 H       1  UNL1        0.0000
     30 H           4.1707   10.1440   -1.4348 H       1  UNL1        0.0000
     31 H           0.7954    9.4415   -4.1941 H       1  UNL1        0.0000
     32 H           0.3829    8.9924   -2.5181 H       1  UNL1        0.0000
     33 H           0.7651   11.3445   -1.7995 H       1  UNL1        0.0000
     34 H           1.1908   11.7941   -3.4534 H       1  UNL1        0.0000
     35 H          -0.4594   11.2718   -3.0765 H       1  UNL1        0.0000
     36 H           4.7813    7.3070   -7.1182 H       1  UNL1        0.0000
     37 H           3.5250    8.4787   -7.4491 H       1  UNL1        0.0000
     38 H           5.2065    8.9495   -7.5429 H       1  UNL1        0.0000
     39 H           6.4029    9.1211   -3.5204 H       1  UNL1        0.0000
     40 H           6.4816    7.5553   -4.3079 H       1  UNL1        0.0000
     41 H           6.9771    8.9958   -5.1671 H       1  UNL1        0.0000
     42 H           3.0904   10.9171   -5.5402 H       1  UNL1        0.0000
     43 H           3.9813   11.0727   -4.0431 H       1  UNL1        0.0000
     44 H           4.7981   11.3070   -5.5808 H       1  UNL1        0.0000
     45 H           1.6615    6.4850   -6.9697 H       1  UNL1        0.0000
     46 H           2.8570    5.2767   -7.3863 H       1  UNL1        0.0000
     47 H           1.1755    4.8221   -7.2166 H       1  UNL1        0.0000
     48 H           3.7499    3.0839   -5.2251 H       1  UNL1        0.0000
     49 H           2.8743    2.9831   -3.7094 H       1  UNL1        0.0000
     50 H           2.0726    2.5867   -5.2126 H       1  UNL1        0.0000
     51 H           0.7248    5.1464   -2.9330 H       1  UNL1        0.0000
     52 H           0.2530    6.3791   -4.0876 H       1  UNL1        0.0000
     53 H          -0.1772    4.7068   -4.3645 H       1  UNL1        0.0000
@<TRIPOS>BOND
     1    38    16    1
     2    37    16    1
     3    46    19    1
     4    47    19    1
     5    36    16    1
     6    16     1    1
     7    45    19    1
     8    19     2    1
     9    44    18    1
    10    42    18    1
    11    48    20    1
    12    50    20    1
    13    41    17    1
    14     1    18    1
    15     1    17    1
    16     1     5    1
    17    18    43    1
    18     2    20    1
    19     2     6    1
    20     2    21    1
    21    24     6    1
    22    23     5    1
    23    20    49    1
    24    17    40    1
    25    17    39    1
    26    53    21    1
    27     5     6    1
    28     5     4    1
    29     6     7    1
    30    31    14    1
    31    52    21    1
    32    21    51    1
    33    34    15    1
    34    14    15    1
    35    14     3    1
    36    14    32    1
    37    35    15    1
    38    26     7    1
    39     7    25    1
    40     7    13    1
    41     4     3    1
    42     4    22    1
    43     4    12    1
    44    15    33    1
    45    13    12    1
    46    13     8    1
    47    12    11    1
    48    27     8    1
    49     8     9    2
    50    30    11    1
    51    11    10    2
    52     9    10    1
    53     9    28    1
    54    10    29    1
