@<TRIPOS>MOLECULE
1,2,3,4,5,6
 30 30 0 0 0
SMALL
GASTEIGER

@<TRIPOS>ATOM
      1 C          -0.5274    3.0896    5.3462 C.2     1  UNL1       -0.0618
      2 C           0.5810    3.7645    5.9533 C.2     1  UNL1       -0.0618
      3 C           1.4931    3.0232    6.7441 C.3     1  UNL1        0.0225
      4 C           1.3088    1.6129    6.9384 C.2     1  UNL1       -0.0618
      5 C           0.2535    0.9416    6.2866 C.2     1  UNL1       -0.0618
      6 C          -0.6487    1.6825    5.4478 C.3     1  UNL1        0.0225
      7 C          -1.6499    3.8693    4.7039 C.3     1  UNL1       -0.0427
      8 C           0.7134    5.2639    5.8213 C.3     1  UNL1       -0.0427
      9 C           2.5532    3.7164    7.5680 C.3     1  UNL1       -0.0510
     10 C           2.1734    0.8909    7.9431 C.3     1  UNL1       -0.0427
     11 C          -0.0583   -0.5081    6.5644 C.3     1  UNL1       -0.0427
     12 C          -1.8554    1.0007    4.8532 C.3     1  UNL1       -0.0510
     13 H          -1.5534    3.8788    3.6176 H       1  UNL1        0.0275
     14 H          -2.6078    3.4178    4.9553 H       1  UNL1        0.0275
     15 H          -1.6708    4.8961    5.0575 H       1  UNL1        0.0275
     16 H           1.7577    5.5625    5.7698 H       1  UNL1        0.0275
     17 H           0.2484    5.7698    6.6712 H       1  UNL1        0.0275
     18 H           0.2450    5.6215    4.9084 H       1  UNL1        0.0275
     19 H           3.5527    3.3750    7.2940 H       1  UNL1        0.0242
     20 H           2.3980    3.4958    8.6249 H       1  UNL1        0.0242
     21 H           2.5227    4.7941    7.4506 H       1  UNL1        0.0242
     22 H           2.3574   -0.1386    7.6483 H       1  UNL1        0.0275
     23 H           1.6810    0.8893    8.9191 H       1  UNL1        0.0275
     24 H           3.1441    1.3642    8.0544 H       1  UNL1        0.0275
     25 H           0.1575   -1.1242    5.6897 H       1  UNL1        0.0275
     26 H          -1.1137   -0.6206    6.8119 H       1  UNL1        0.0275
     27 H           0.5166   -0.8954    7.3987 H       1  UNL1        0.0275
     28 H          -1.6685   -0.0547    4.6820 H       1  UNL1        0.0242
     29 H          -2.1208    1.4510    3.9000 H       1  UNL1        0.0242
     30 H          -2.7113    1.0876    5.5286 H       1  UNL1        0.0242
@<TRIPOS>BOND
     1    13     7    1
     2    29    12    1
     3    28    12    1
     4     7    14    1
     5     7    15    1
     6     7     1    1
     7    12     6    1
     8    12    30    1
     9    18     8    1
    10     1     6    1
    11     1     2    2
    12     6     5    1
    13    25    11    1
    14    16     8    1
    15     8     2    1
    16     8    17    1
    17     2     3    1
    18     5    11    1
    19     5     4    2
    20    11    26    1
    21    11    27    1
    22     3     4    1
    23     3     9    1
    24     4    10    1
    25    19     9    1
    26    21     9    1
    27     9    20    1
    28    22    10    1
    29    10    24    1
    30    10    23    1
