@<TRIPOS>MOLECULE
1,2,3,4,5,6
 30 30 0 0 0
SMALL
GASTEIGER

@<TRIPOS>ATOM
      1 C          -0.4721   -2.2691   -4.6913 C.2     1  UNL1       -0.0618
      2 C           0.2764   -1.0700   -4.4771 C.2     1  UNL1       -0.0618
      3 C          -0.3011    0.1674   -4.8497 C.3     1  UNL1        0.0225
      4 C          -1.5048    0.1986   -5.6284 C.2     1  UNL1       -0.0618
      5 C          -2.2623   -0.9778   -5.7898 C.2     1  UNL1       -0.0618
      6 C          -1.7478   -2.2340   -5.3145 C.3     1  UNL1        0.0225
      7 C           0.1381   -3.6126   -4.3814 C.3     1  UNL1       -0.0427
      8 C           1.7005   -1.1551   -3.9827 C.3     1  UNL1       -0.0427
      9 C           0.4378    1.4584   -4.5910 C.3     1  UNL1       -0.0510
     10 C          -1.8681    1.4501   -6.3916 C.3     1  UNL1       -0.0427
     11 C          -3.5599   -0.9311   -6.5563 C.3     1  UNL1       -0.0427
     12 C          -2.3956   -3.5412   -5.6987 C.3     1  UNL1       -0.0510
     13 H           0.9642   -3.5347   -3.6815 H       1  UNL1        0.0275
     14 H           0.5094   -4.0703   -5.3016 H       1  UNL1        0.0275
     15 H          -0.6025   -4.2789   -3.9457 H       1  UNL1        0.0275
     16 H           2.2306   -0.2211   -4.1416 H       1  UNL1        0.0275
     17 H           2.2361   -1.9323   -4.5281 H       1  UNL1        0.0275
     18 H           1.7438   -1.3924   -2.9187 H       1  UNL1        0.0275
     19 H          -0.2564    2.2944   -4.5343 H       1  UNL1        0.0242
     20 H           0.9680    1.4121   -3.6420 H       1  UNL1        0.0242
     21 H           1.1619    1.6623   -5.3838 H       1  UNL1        0.0242
     22 H          -0.9811    2.0481   -6.5864 H       1  UNL1        0.0275
     23 H          -2.3015    1.1870   -7.3548 H       1  UNL1        0.0275
     24 H          -2.5825    2.0745   -5.8544 H       1  UNL1        0.0275
     25 H          -3.9806    0.0707   -6.5487 H       1  UNL1        0.0275
     26 H          -4.2997   -1.5869   -6.1025 H       1  UNL1        0.0275
     27 H          -3.4076   -1.2394   -7.5930 H       1  UNL1        0.0275
     28 H          -2.5988   -4.1508   -4.8198 H       1  UNL1        0.0242
     29 H          -1.7244   -4.1054   -6.3497 H       1  UNL1        0.0242
     30 H          -3.3290   -3.3934   -6.2307 H       1  UNL1        0.0242
@<TRIPOS>BOND
     1    27    11    1
     2    23    10    1
     3    22    10    1
     4    11    25    1
     5    11    26    1
     6    11     5    1
     7    10    24    1
     8    10     4    1
     9    29    12    1
    10    30    12    1
    11     5     4    2
    12     5     6    1
    13    12     6    1
    14    12    28    1
    15     4     3    1
    16    21     9    1
    17     6     1    1
    18    14     7    1
    19     3     9    1
    20     3     2    1
    21     1     2    2
    22     1     7    1
    23     9    19    1
    24     9    20    1
    25    17     8    1
    26     2     8    1
    27     7    15    1
    28     7    13    1
    29    16     8    1
    30     8    18    1
