@<TRIPOS>MOLECULE
1,2,3,4,5,6
 30 30 0 0 0
SMALL
GASTEIGER

@<TRIPOS>ATOM
      1 C           1.3691    1.3250    0.3898 C.2     1  UNL1       -0.0618
      2 C           0.3980    0.9680    1.3704 C.2     1  UNL1       -0.0618
      3 C           0.7797    0.0952    2.4224 C.3     1  UNL1        0.0225
      4 C           2.0295   -0.6056    2.3642 C.2     1  UNL1       -0.0618
      5 C           2.9887   -0.2355    1.3988 C.2     1  UNL1       -0.0618
      6 C           2.6707    0.7508    0.4035 C.3     1  UNL1        0.0225
      7 C           0.9857    2.2123   -0.7668 C.3     1  UNL1       -0.0427
      8 C          -1.0322    1.4272    1.2127 C.3     1  UNL1       -0.0427
      9 C          -0.2181   -0.2382    3.5059 C.3     1  UNL1       -0.0510
     10 C           2.2771   -1.8263    3.2202 C.3     1  UNL1       -0.0427
     11 C           4.3034   -0.9704    1.3371 C.3     1  UNL1       -0.0427
     12 C           3.5689    0.9774   -0.7872 C.3     1  UNL1       -0.0510
     13 H           0.1281    2.8360   -0.5332 H       1  UNL1        0.0275
     14 H           0.7402    1.5999   -1.6379 H       1  UNL1        0.0275
     15 H           1.8079    2.8706   -1.0340 H       1  UNL1        0.0275
     16 H          -1.1597    2.4647    1.5258 H       1  UNL1        0.0275
     17 H          -1.7110    0.8117    1.7959 H       1  UNL1        0.0275
     18 H          -1.3354    1.3467    0.1693 H       1  UNL1        0.0275
     19 H          -0.8714   -1.0586    3.1985 H       1  UNL1        0.0242
     20 H          -0.8348    0.6285    3.7344 H       1  UNL1        0.0242
     21 H           0.2868   -0.5257    4.4249 H       1  UNL1        0.0242
     22 H           3.0590   -1.6574    3.9614 H       1  UNL1        0.0275
     23 H           1.3782   -2.1412    3.7407 H       1  UNL1        0.0275
     24 H           2.5937   -2.6538    2.5842 H       1  UNL1        0.0275
     25 H           4.2688   -1.7456    0.5686 H       1  UNL1        0.0275
     26 H           5.1194   -0.2893    1.1084 H       1  UNL1        0.0275
     27 H           4.5410   -1.4379    2.2877 H       1  UNL1        0.0275
     28 H           3.0637    0.6422   -1.6957 H       1  UNL1        0.0242
     29 H           3.8057    2.0326   -0.9049 H       1  UNL1        0.0242
     30 H           4.5021    0.4312   -0.7049 H       1  UNL1        0.0242
@<TRIPOS>BOND
     1    28    12    1
     2    14     7    1
     3    15     7    1
     4    29    12    1
     5    12    30    1
     6    12     6    1
     7     7    13    1
     8     7     1    1
     9    18     8    1
    10     1     6    1
    11     1     2    2
    12     6     5    1
    13    25    11    1
    14    26    11    1
    15     8     2    1
    16     8    16    1
    17     8    17    1
    18    11     5    1
    19    11    27    1
    20     2     3    1
    21     5     4    2
    22     4     3    1
    23     4    10    1
    24     3     9    1
    25    24    10    1
    26    19     9    1
    27    10    23    1
    28    10    22    1
    29     9    20    1
    30     9    21    1
