@<TRIPOS>MOLECULE
1,2,3,4,5,6
 30 30 0 0 0
SMALL
GASTEIGER

@<TRIPOS>ATOM
      1 C           3.1515    0.2420   -5.3252 C.2     1  UNL1       -0.0618
      2 C           2.2005    1.3047   -5.3603 C.2     1  UNL1       -0.0618
      3 C           1.1068    1.2712   -4.4577 C.3     1  UNL1        0.0225
      4 C           0.7958    0.0621   -3.7439 C.2     1  UNL1       -0.0618
      5 C           1.7139   -1.0033   -3.7539 C.2     1  UNL1       -0.0618
      6 C           2.9426   -0.8922   -4.4913 C.3     1  UNL1        0.0225
      7 C           4.3170    0.2236   -6.2823 C.3     1  UNL1       -0.0427
      8 C           2.3164    2.3854   -6.4093 C.3     1  UNL1       -0.0427
      9 C           0.1529    2.4415   -4.4166 C.3     1  UNL1       -0.0510
     10 C          -0.5626   -0.1363   -3.1115 C.3     1  UNL1       -0.0427
     11 C           1.3952   -2.3124   -3.0777 C.3     1  UNL1       -0.0427
     12 C           3.8533   -2.0850   -4.6372 C.3     1  UNL1       -0.0510
     13 H           5.2280   -0.0793   -5.7711 H       1  UNL1        0.0275
     14 H           4.4995    1.1979   -6.7246 H       1  UNL1        0.0275
     15 H           4.1238   -0.4916   -7.0849 H       1  UNL1        0.0275
     16 H           1.3697    2.8985   -6.5521 H       1  UNL1        0.0275
     17 H           2.5928    1.9452   -7.3668 H       1  UNL1        0.0275
     18 H           3.0702    3.1281   -6.1436 H       1  UNL1        0.0275
     19 H           0.6844    3.3720   -4.6030 H       1  UNL1        0.0242
     20 H          -0.3124    2.5334   -3.4382 H       1  UNL1        0.0242
     21 H          -0.6354    2.3317   -5.1654 H       1  UNL1        0.0242
     22 H          -1.1928    0.7409   -3.2127 H       1  UNL1        0.0275
     23 H          -0.4815   -0.3769   -2.0513 H       1  UNL1        0.0275
     24 H          -1.0751   -0.9625   -3.6085 H       1  UNL1        0.0275
     25 H           0.4219   -2.3011   -2.6002 H       1  UNL1        0.0275
     26 H           2.1346   -2.5307   -2.3063 H       1  UNL1        0.0275
     27 H           1.4058   -3.1224   -3.8079 H       1  UNL1        0.0275
     28 H           4.8975   -1.7836   -4.6210 H       1  UNL1        0.0242
     29 H           3.6607   -2.5835   -5.5909 H       1  UNL1        0.0242
     30 H           3.7045   -2.8067   -3.8414 H       1  UNL1        0.0242
@<TRIPOS>BOND
     1    17     8    1
     2    15     7    1
     3    14     7    1
     4    16     8    1
     5     8    18    1
     6     8     2    1
     7     7    13    1
     8     7     1    1
     9    29    12    1
    10     2     1    2
    11     2     3    1
    12     1     6    1
    13    21     9    1
    14    12    28    1
    15    12     6    1
    16    12    30    1
    17    19     9    1
    18     6     5    1
    19     3     9    1
    20     3     4    1
    21     9    20    1
    22    27    11    1
    23     5     4    2
    24     5    11    1
    25     4    10    1
    26    24    10    1
    27    22    10    1
    28    10    23    1
    29    11    25    1
    30    11    26    1
