@<TRIPOS>MOLECULE
4,5,6,7,8,9
 32 32 0 0 0
SMALL
GASTEIGER

@<TRIPOS>ATOM
      1 SI          1.7644    7.2894    5.5176 Si      1  UNL1        0.0000
      2 O           4.3470   10.9819   -1.9321 O.2     1  UNL1        0.0000
      3 O           4.4222   11.7330    4.3374 O.2     1  UNL1        0.0000
      4 C           3.8267   10.9204    2.1942 C.3     1  UNL1        0.0000
      5 C           3.5892    9.7789    1.3937 C.2     1  UNL1        0.0000
      6 C           3.6961    9.8562    0.0059 C.2     1  UNL1        0.0000
      7 C           4.1182   11.0608   -0.6345 C.2     1  UNL1        0.0000
      8 C           4.2832   12.2203    0.1681 C.2     1  UNL1        0.0000
      9 C           4.1816   12.1289    1.5627 C.3     1  UNL1        0.0000
     10 C           3.8754   10.8564    3.7122 C.2     1  UNL1        0.0000
     11 C           3.2254    9.7137    4.2592 C.1     1  UNL1        0.0000
     12 C           2.6523    8.7539    4.7269 C.1     1  UNL1        0.0000
     13 C           2.6073    5.7499    4.7799 C.3     1  UNL1        0.0000
     14 C           1.9954    7.4522    7.3919 C.3     1  UNL1        0.0000
     15 C          -0.0418    7.4683    4.9447 C.3     1  UNL1        0.0000
     16 C           4.7083   12.1346   -2.6806 C.3     1  UNL1        0.0000
     17 H           3.3995    8.8226    1.8727 H       1  UNL1        0.0000
     18 H           3.6082    8.9690   -0.6103 H       1  UNL1        0.0000
     19 H           4.6367   13.1429   -0.2759 H       1  UNL1        0.0000
     20 H           4.4553   12.9751    2.1882 H       1  UNL1        0.0000
     21 H           2.4677    5.6832    3.7044 H       1  UNL1        0.0000
     22 H           3.6753    5.7457    4.9777 H       1  UNL1        0.0000
     23 H           2.1932    4.8460    5.2162 H       1  UNL1        0.0000
     24 H           1.5056    6.6370    7.9171 H       1  UNL1        0.0000
     25 H           1.5743    8.3818    7.7640 H       1  UNL1        0.0000
     26 H           3.0462    7.4346    7.6671 H       1  UNL1        0.0000
     27 H          -0.4656    8.4187    5.2552 H       1  UNL1        0.0000
     28 H          -0.6545    6.6823    5.3755 H       1  UNL1        0.0000
     29 H          -0.1376    7.4008    3.8646 H       1  UNL1        0.0000
     30 H           4.8033   11.7903   -3.7082 H       1  UNL1        0.0000
     31 H           5.6649   12.5427   -2.3464 H       1  UNL1        0.0000
     32 H           3.9291   12.8994   -2.6232 H       1  UNL1        0.0000
@<TRIPOS>BOND
     1    30    16    1
     2    16    32    1
     3    16    31    1
     4    16     2    1
     5     2     7    1
     6     7     6    1
     7     7     8    2
     8    18     6    1
     9    19     8    1
    10     6     5    2
    11     8     9    1
    12     5    17    1
    13     5     4    1
    14     9    20    1
    15     9     4    1
    16     4    10    1
    17    21    13    1
    18    10    11    1
    19    10     3    2
    20    29    15    1
    21    11    12    3
    22    12     1    1
    23    13    22    1
    24    13    23    1
    25    13     1    1
    26    15    27    1
    27    15    28    1
    28    15     1    1
    29     1    14    1
    30    14    26    1
    31    14    25    1
    32    14    24    1
