@<TRIPOS>MOLECULE
3,4,5,6,7,8
 40 41 0 0 0
SMALL
GASTEIGER

@<TRIPOS>ATOM
      1 SI          4.3934    6.4559   -0.4066 Si      1  UNL1        0.0000
      2 SI          0.7127    2.6332   -2.6838 Si      1  UNL1        0.0000
      3 C           1.0098    6.8520    0.7518 C.3     1  UNL1        0.0000
      4 C          -0.3845    7.1673    0.5954 C.2     1  UNL1        0.0000
      5 C          -1.2717    6.2694    0.0219 C.2     1  UNL1        0.0000
      6 C          -0.8392    4.9778   -0.4413 C.3     1  UNL1        0.0000
      7 C           0.5884    4.8619   -0.7185 C.2     1  UNL1        0.0000
      8 C           1.5105    5.8006   -0.1291 C.3     1  UNL1        0.0000
      9 C           2.8213    5.4642   -0.5629 C.2     1  UNL1        0.0000
     10 C           2.6756    4.3508   -1.4082 C.2     1  UNL1        0.0000
     11 C           1.3333    3.9485   -1.5141 C.2     1  UNL1        0.0000
     12 C           4.6648    7.3252    1.2836 C.3     1  UNL1        0.0000
     13 C           4.4842    7.8299   -1.7345 C.3     1  UNL1        0.0000
     14 H           3.6625    8.5321   -1.6281 H       1  UNL1        0.0000
     15 H           4.4210    7.4075   -2.7327 H       1  UNL1        0.0000
     16 H           5.4110    8.3932   -1.6712 H       1  UNL1        0.0000
     17 C           5.8924    5.2883   -0.6417 C.3     1  UNL1        0.0000
     18 C          -1.0513    2.9655   -3.3470 C.3     1  UNL1        0.0000
     19 C           1.8868    2.5218   -4.1858 C.3     1  UNL1        0.0000
     20 C           0.6900    0.8705   -1.9069 C.3     1  UNL1        0.0000
     21 H           3.9167    8.0895    1.4652 H       1  UNL1        0.0000
     22 H          -1.5314    4.3780   -1.0248 H       1  UNL1        0.0000
     23 H           5.6310    7.8215    1.2870 H       1  UNL1        0.0000
     24 H          -2.3154    6.5532   -0.0877 H       1  UNL1        0.0000
     25 H           1.6870    7.6504    1.0464 H       1  UNL1        0.0000
     26 H           4.6530    6.6427    2.1286 H       1  UNL1        0.0000
     27 H          -0.7500    8.1361    0.9236 H       1  UNL1        0.0000
     28 H           6.8253    5.8398   -0.5816 H       1  UNL1        0.0000
     29 H          -1.1962    4.0163   -3.5766 H       1  UNL1        0.0000
     30 H           3.4895    3.8765   -1.9287 H       1  UNL1        0.0000
     31 H           5.9286    4.5027    0.1078 H       1  UNL1        0.0000
     32 H           1.6724    0.5840   -1.5410 H       1  UNL1        0.0000
     33 H          -1.8171    2.6696   -2.6366 H       1  UNL1        0.0000
     34 H          -1.2273    2.4046   -4.2602 H       1  UNL1        0.0000
     35 H           0.3994    0.1375   -2.6536 H       1  UNL1        0.0000
     36 H          -0.0098    0.7810   -1.0812 H       1  UNL1        0.0000
     37 H           5.8612    4.8105   -1.6148 H       1  UNL1        0.0000
     38 H           2.8824    2.2137   -3.8834 H       1  UNL1        0.0000
     39 H           1.5298    1.8003   -4.9145 H       1  UNL1        0.0000
     40 H           1.9797    3.4802   -4.6859 H       1  UNL1        0.0000
@<TRIPOS>BOND
     1    39    19    1
     2    40    19    1
     3    34    18    1
     4    19    38    1
     5    19     2    1
     6    29    18    1
     7    18     2    1
     8    18    33    1
     9    15    13    1
    10     2    20    1
    11     2    11    1
    12    35    20    1
    13    30    10    1
    14    20    32    1
    15    20    36    1
    16    13    16    1
    17    13    14    1
    18    13     1    1
    19    37    17    1
    20    11    10    1
    21    11     7    2
    22    10     9    2
    23    22     6    1
    24     7     6    1
    25     7     8    1
    26    17    28    1
    27    17     1    1
    28    17    31    1
    29     9     1    1
    30     9     8    1
    31     6     5    1
    32     1    12    1
    33     8     3    1
    34    24     5    1
    35     5     4    2
    36     4     3    1
    37     4    27    1
    38     3    25    1
    39    12    23    1
    40    12    21    1
    41    12    26    1
