@<TRIPOS>MOLECULE
1,2,3,4,5,6
 35 36 0 0 0
SMALL
GASTEIGER

@<TRIPOS>ATOM
      1 C           1.6099    6.7677   -3.2473 C.2     1  UNL1        0.0000
      2 C           1.4244    8.0670   -3.7684 C.3     1  UNL1        0.0000
      3 C           1.2876    8.2033   -5.1705 C.3     1  UNL1        0.0000
      4 C           1.3148    7.1110   -6.0342 C.3     1  UNL1        0.0000
      5 C           1.5432    5.8289   -5.5056 C.3     1  UNL1        0.0000
      6 C           1.6680    5.6602   -4.1283 C.2     1  UNL1        0.0000
      7 C           1.6557    6.5361   -1.7901 C.3     1  UNL1        0.0000
      8 C           1.0339    5.3071   -1.1608 C.3     1  UNL1        0.0000
      9 C           2.5158    5.4467   -1.1670 C.3     1  UNL1        0.0000
     10 O           3.1251    5.6947    0.0517 O.3     1  UNL1        0.0000
     11 C           4.4234    6.2415   -0.0636 C.3     1  UNL1        0.0000
     12 SI          1.3902    9.6509   -2.7083 Si      1  UNL1        0.0000
     13 C           1.3610   11.1638   -3.8687 C.3     1  UNL1        0.0000
     14 C          -0.2026    9.6778   -1.6491 C.3     1  UNL1        0.0000
     15 C           2.9858    9.7494   -1.6644 C.3     1  UNL1        0.0000
     16 H           1.0687    9.1817   -5.5792 H       1  UNL1        0.0000
     17 H           1.1231    7.2384   -7.0927 H       1  UNL1        0.0000
     18 H           1.5237    4.9628   -6.1576 H       1  UNL1        0.0000
     19 H           1.7511    4.6572   -3.7281 H       1  UNL1        0.0000
     20 H           1.5826    7.4318   -1.1904 H       1  UNL1        0.0000
     21 H           0.5373    5.4394   -0.2124 H       1  UNL1        0.0000
     22 H           0.5743    4.5671   -1.7979 H       1  UNL1        0.0000
     23 H           3.1104    4.8310   -1.8416 H       1  UNL1        0.0000
     24 H           4.7966    6.3525    0.9521 H       1  UNL1        0.0000
     25 H           4.4040    7.2158   -0.5609 H       1  UNL1        0.0000
     26 H           5.0833    5.5755   -0.6279 H       1  UNL1        0.0000
     27 H           2.2191   11.1693   -4.5343 H       1  UNL1        0.0000
     28 H           1.3998   12.0780   -3.2847 H       1  UNL1        0.0000
     29 H           0.4603   11.2112   -4.4737 H       1  UNL1        0.0000
     30 H          -0.2487    8.8654   -0.9312 H       1  UNL1        0.0000
     31 H          -1.0931    9.6152   -2.2682 H       1  UNL1        0.0000
     32 H          -0.2586   10.6078   -1.0924 H       1  UNL1        0.0000
     33 H           3.8107    9.2503   -2.1689 H       1  UNL1        0.0000
     34 H           2.8726    9.3035   -0.6811 H       1  UNL1        0.0000
     35 H           3.2752   10.7844   -1.5118 H       1  UNL1        0.0000
@<TRIPOS>BOND
     1    17     4    1
     2    18     5    1
     3     4     5    1
     4     4     3    1
     5    16     3    1
     6     5     6    1
     7     3     2    1
     8    27    13    1
     9    29    13    1
    10     6    19    1
    11     6     1    2
    12    13    28    1
    13    13    12    1
    14     2     1    1
    15     2    12    1
    16     1     7    1
    17    12    15    1
    18    12    14    1
    19    31    14    1
    20    33    15    1
    21    23     9    1
    22    22     8    1
    23     7    20    1
    24     7     9    1
    25     7     8    1
    26    15    35    1
    27    15    34    1
    28    14    32    1
    29    14    30    1
    30     9     8    1
    31     9    10    1
    32     8    21    1
    33    26    11    1
    34    25    11    1
    35    11    10    1
    36    11    24    1
