@<TRIPOS>MOLECULE
1,3,5,6,8,10
 24 24 0 0 0
SMALL
GASTEIGER

@<TRIPOS>ATOM
      1 C           7.8462   -2.4453   20.5532 C.3     1  UNL1       -0.0091
      2 H           8.6246   -3.1294   20.8723 H       1  UNL1        0.0355
      3 C           7.1312   -1.7142   21.5364 C.2     1  UNL1       -0.0805
      4 H           7.3689   -1.8449   22.5860 H       1  UNL1        0.0575
      5 C           6.0745   -0.8633   21.1629 C.2     1  UNL1       -0.0723
      6 C           5.7171   -0.7773   19.7884 C.3     1  UNL1       -0.0097
      7 H           4.8609   -0.1778   19.4990 H       1  UNL1        0.0354
      8 C           6.4069   -1.5391   18.8264 C.3     1  UNL1       -0.0231
      9 H           6.0698   -1.5233   17.7943 H       1  UNL1        0.0315
     10 C           7.4737   -2.4012   19.1888 C.3     1  UNL1       -0.0098
     11 C           8.1406   -3.2820   18.1588 C.3     1  UNL1       -0.0397
     12 H           7.7554   -3.0018   17.1713 H       1  UNL1        0.0301
     13 C           7.7853   -4.7508   18.4115 C.3     1  UNL1       -0.0621
     14 H           8.1605   -5.0772   19.3790 H       1  UNL1        0.0233
     15 H           8.2273   -5.3798   17.6424 H       1  UNL1        0.0233
     16 H           6.7064   -4.8925   18.3961 H       1  UNL1        0.0233
     17 C           9.6564   -3.0748   18.1498 C.3     1  UNL1       -0.0621
     18 H           9.8841   -2.0122   18.0742 H       1  UNL1        0.0233
     19 H          10.1019   -3.5926   17.3033 H       1  UNL1        0.0233
     20 H          10.1081   -3.4596   19.0606 H       1  UNL1        0.0233
     21 C           5.3243   -0.0621   22.1827 C.3     1  UNL1       -0.0435
     22 H           4.2594   -0.0449   21.9560 H       1  UNL1        0.0274
     23 H           5.6922    0.9673   22.1650 H       1  UNL1        0.0274
     24 H           5.4742   -0.4611   23.1836 H       1  UNL1        0.0274
@<TRIPOS>BOND
     1    12    11    1
     2    19    17    1
     3    15    13    1
     4     9     8    1
     5    18    17    1
     6    17    11    1
     7    17    20    1
     8    11    13    1
     9    11    10    1
    10    16    13    1
    11    13    14    1
    12     8    10    1
    13     8     6    1
    14    10     1    1
    15     7     6    1
    16     6     5    1
    17     1     2    1
    18     1     3    1
    19     5     3    2
    20     5    21    1
    21     3     4    1
    22    22    21    1
    23    23    21    1
    24    21    24    1
