@<TRIPOS>MOLECULE
1,3,5,7,9,11
 12 12 0 0 0
SMALL
GASTEIGER

@<TRIPOS>ATOM
      1 C           0.1968    7.1017    7.7209 C.3     1  UNL1       -0.0269
      2 H          -0.7144    7.5468    8.1027 H       1  UNL1        0.0312
      3 C           1.1766    7.9079    7.0959 C.3     1  UNL1       -0.0269
      4 H           1.0091    8.9756    7.0037 H       1  UNL1        0.0312
      5 C           2.4082    7.3559    6.6893 C.3     1  UNL1       -0.0130
      6 H           3.1877    7.9884    6.2818 H       1  UNL1        0.0352
      7 C           2.6500    5.9743    6.8913 C.2     1  UNL1       -0.0837
      8 H           3.6135    5.5561    6.6165 H       1  UNL1        0.0572
      9 C           1.6889    5.1607    7.5177 C.2     1  UNL1       -0.0837
     10 H           1.9146    4.1261    7.7450 H       1  UNL1        0.0572
     11 C           0.4445    5.7233    7.8975 C.3     1  UNL1       -0.0130
     12 H          -0.2842    5.1126    8.4198 H       1  UNL1        0.0352
@<TRIPOS>BOND
     1     6     5    1
     2     8     7    1
     3     5     7    1
     4     5     3    1
     5     7     9    2
     6     4     3    1
     7     3     1    1
     8     9    10    1
     9     9    11    1
    10     1    11    1
    11     1     2    1
    12    11    12    1
