@<TRIPOS>MOLECULE
1,2,4,6,8,10
 15 15 0 0 0
SMALL
GASTEIGER

@<TRIPOS>ATOM
      1 C           5.9756    2.3300   12.3707 C.3     1  UNL1       -0.0154
      2 C           5.3122    1.2631   12.9878 C.3     1  UNL1       -0.0099
      3 H           5.8513    0.6412   13.6961 H       1  UNL1        0.0354
      4 C           3.9379    1.0856   12.8196 C.2     1  UNL1       -0.0834
      5 H           3.4137    0.3296   13.3951 H       1  UNL1        0.0572
      6 C           3.2195    1.9664   12.0098 C.2     1  UNL1       -0.0837
      7 H           2.1372    1.8930   11.9536 H       1  UNL1        0.0572
      8 C           3.8881    2.9729   11.3097 C.3     1  UNL1       -0.0127
      9 H           3.3244    3.6818   10.7118 H       1  UNL1        0.0352
     10 C           5.2614    3.1471   11.4887 C.3     1  UNL1       -0.0238
     11 H           5.7599    3.9941   11.0272 H       1  UNL1        0.0315
     12 C           7.4036    2.6396   12.7114 C.3     1  UNL1       -0.0582
     13 H           7.9122    3.1269   11.8803 H       1  UNL1        0.0236
     14 H           7.9545    1.7355   12.9689 H       1  UNL1        0.0236
     15 H           7.4346    3.3137   13.5722 H       1  UNL1        0.0236
@<TRIPOS>BOND
     1     9     8    1
     2    11    10    1
     3     8    10    1
     4     8     6    1
     5    10     1    1
     6    13    12    1
     7     7     6    1
     8     6     4    2
     9     1    12    1
    10     1     2    1
    11    12    14    1
    12    12    15    1
    13     4     2    1
    14     4     5    1
    15     2     3    1
