@<TRIPOS>MOLECULE
5,6,8,10,11,13
 24 24 0 0 0
SMALL
GASTEIGER

@<TRIPOS>ATOM
      1 C           7.2935    2.9758   14.0813 C.3     1  UNL1       -0.0400
      2 H           7.3418    3.0078   15.1696 H       1  UNL1        0.0277
      3 H           8.2699    3.2057   13.6626 H       1  UNL1        0.0277
      4 H           7.0166    1.9629   13.7804 H       1  UNL1        0.0277
      5 C           6.2660    3.9360   13.5680 C.2     1  UNL1       -0.0543
      6 C           4.9303    3.8867   14.0571 C.2     1  UNL1       -0.0766
      7 H           4.6748    3.1767   14.8363 H       1  UNL1        0.0578
      8 C           3.9669    4.7808   13.5781 C.3     1  UNL1       -0.0051
      9 H           2.9642    4.7426   13.9883 H       1  UNL1        0.0358
     10 C           4.2899    5.7737   12.6163 C.3     1  UNL1        0.0080
     11 C           5.6185    5.8169   12.1530 C.2     1  UNL1       -0.0759
     12 H           5.9112    6.6186   11.4804 H       1  UNL1        0.0578
     13 C           6.6113    4.9412   12.6471 C.2     1  UNL1       -0.0625
     14 H           7.6441    5.0522   12.3372 H       1  UNL1        0.0617
     15 C           3.2702    6.7794   12.1352 C.3     1  UNL1       -0.0362
     16 H           3.7950    7.5286   11.5288 H       1  UNL1        0.0304
     17 C           2.5999    7.5025   13.3060 C.3     1  UNL1       -0.0618
     18 H           1.9805    6.8212   13.8835 H       1  UNL1        0.0233
     19 H           1.9641    8.3011   12.9313 H       1  UNL1        0.0233
     20 H           3.3470    7.9378   13.9672 H       1  UNL1        0.0233
     21 C           2.2295    6.0910   11.2479 C.3     1  UNL1       -0.0618
     22 H           1.6883    5.3335   11.8099 H       1  UNL1        0.0233
     23 H           2.7196    5.5990   10.4066 H       1  UNL1        0.0233
     24 H           1.5166    6.8166   10.8626 H       1  UNL1        0.0233
@<TRIPOS>BOND
     1    23    21    1
     2    24    21    1
     3    21    22    1
     4    21    15    1
     5    12    11    1
     6    16    15    1
     7    15    10    1
     8    15    17    1
     9    11    10    1
    10    11    13    2
    11    14    13    1
    12    10     8    1
    13    13     5    1
    14    19    17    1
    15    17    18    1
    16    17    20    1
    17     5     6    2
    18     5     1    1
    19     8     9    1
    20     8     6    1
    21     3     1    1
    22     4     1    1
    23     6     7    1
    24     1     2    1
