@<TRIPOS>MOLECULE
2,3,4,5,6,7
 27 27 0 0 0
SMALL
GASTEIGER

@<TRIPOS>ATOM
      1 SI          3.9612    6.4098    5.8071 Si      1  UNL1        0.0000
      2 C           3.7578    4.6235    5.2007 C.3     1  UNL1        0.0000
      3 C           2.5665    3.9137    5.4203 C.3     1  UNL1        0.0000
      4 C           2.3968    2.5949    4.9700 C.3     1  UNL1        0.0000
      5 C           3.4510    1.9252    4.3351 C.2     1  UNL1        0.0000
      6 C           4.6550    2.6199    4.1078 C.2     1  UNL1        0.0000
      7 C           4.8049    3.9353    4.5554 C.3     1  UNL1        0.0000
      8 C           3.2695    0.5352    3.8024 C.3     1  UNL1        0.0000
      9 H           2.9942    0.5703    2.7461 H       1  UNL1        0.0000
     10 H           2.4835    0.0109    4.3418 H       1  UNL1        0.0000
     11 H           4.1918   -0.0360    3.8917 H       1  UNL1        0.0000
     12 C           3.2545    7.5699    4.4603 C.3     1  UNL1        0.0000
     13 H           2.2072    7.3635    4.2588 H       1  UNL1        0.0000
     14 H           3.7939    7.4755    3.5221 H       1  UNL1        0.0000
     15 H           3.3283    8.6054    4.7766 H       1  UNL1        0.0000
     16 C           5.8129    6.7480    6.0944 C.3     1  UNL1        0.0000
     17 H           6.2572    5.9834    6.7254 H       1  UNL1        0.0000
     18 H           5.9546    7.7036    6.5887 H       1  UNL1        0.0000
     19 H           6.3732    6.7821    5.1648 H       1  UNL1        0.0000
     20 C           2.9966    6.5803    7.4407 C.3     1  UNL1        0.0000
     21 H           3.2386    5.7694    8.1228 H       1  UNL1        0.0000
     22 H           1.9223    6.5727    7.2828 H       1  UNL1        0.0000
     23 H           3.2403    7.5137    7.9378 H       1  UNL1        0.0000
     24 H           1.7201    4.4253    5.8648 H       1  UNL1        0.0000
     25 H           1.4356    2.1046    5.0780 H       1  UNL1        0.0000
     26 H           5.4470    2.1423    3.5417 H       1  UNL1        0.0000
     27 H           5.7196    4.4680    4.3206 H       1  UNL1        0.0000
@<TRIPOS>BOND
     1     9     8    1
     2    14    12    1
     3    26     6    1
     4     8    11    1
     5     8     5    1
     6     8    10    1
     7     6     5    2
     8     6     7    1
     9    13    12    1
    10    27     7    1
    11     5     4    1
    12    12    15    1
    13    12     1    1
    14     7     2    1
    15     4    25    1
    16     4     3    1
    17    19    16    1
    18     2     3    1
    19     2     1    1
    20     3    24    1
    21     1    16    1
    22     1    20    1
    23    16    18    1
    24    16    17    1
    25    22    20    1
    26    20    23    1
    27    20    21    1
