@<TRIPOS>MOLECULE
1,3,5,7,9,11
 12 12 0 0 0
SMALL
GASTEIGER

@<TRIPOS>ATOM
      1 C           6.0156    5.0419    8.9151 C.3     1  UNL1       -0.0269
      2 H           6.8739    4.4943    9.2917 H       1  UNL1        0.0312
      3 C           5.0748    4.3812    8.1009 C.3     1  UNL1       -0.0130
      4 H           5.1974    3.3310    7.8640 H       1  UNL1        0.0352
      5 C           4.0015    5.1151    7.5439 C.2     1  UNL1       -0.0837
      6 H           3.2931    4.6114    6.8939 H       1  UNL1        0.0572
      7 C           3.8853    6.4956    7.7664 C.2     1  UNL1       -0.0837
      8 H           3.0934    7.0634    7.2936 H       1  UNL1        0.0572
      9 C           4.8352    7.1481    8.5871 C.3     1  UNL1       -0.0130
     10 H           4.7624    8.2191    8.7419 H       1  UNL1        0.0352
     11 C           5.9166    6.4395    9.1347 C.3     1  UNL1       -0.0269
     12 H           6.6852    6.9632    9.6906 H       1  UNL1        0.0312
@<TRIPOS>BOND
     1     6     5    1
     2     8     7    1
     3     5     7    2
     4     5     3    1
     5     7     9    1
     6     4     3    1
     7     3     1    1
     8     9    10    1
     9     9    11    1
    10     1    11    1
    11     1     2    1
    12    11    12    1
