@<TRIPOS>MOLECULE
1,2,3,4,5,6
 51 51 0 0 0
SMALL
GASTEIGER

@<TRIPOS>ATOM
      1 C           5.0460    3.9475    8.5061 C.3     1  UNL1        0.0000
      2 C           5.4818    2.8828    7.7177 C.3     1  UNL1        0.0000
      3 C           4.6208    2.5278    6.6459 C.3     1  UNL1        0.0000
      4 C           3.4357    3.2155    6.3845 C.2     1  UNL1        0.0000
      5 C           2.9789    4.2438    7.2406 C.2     1  UNL1        0.0000
      6 C           3.8124    4.5948    8.3044 C.3     1  UNL1        0.0000
      7 S           6.0837    4.7478    9.7264 S.O2    1  UNL1        0.0000
      8 O           7.2316    3.9131    9.9818 O.2     1  UNL1        0.0000
      9 O           5.2566    5.1089   10.8480 O.2     1  UNL1        0.0000
     10 C           6.7141    6.3162    8.9458 C.3     1  UNL1        0.0000
     11 C           7.3178    5.9349    7.6094 C.3     1  UNL1        0.0000
     12 C           7.7591    6.8026    9.9348 C.3     1  UNL1        0.0000
     13 C           5.5715    7.3055    8.8153 C.3     1  UNL1        0.0000
     14 SI          6.9631    1.7530    8.1694 Si      1  UNL1        0.0000
     15 C           8.6792    2.4999    7.7833 C.3     1  UNL1        0.0000
     16 C           6.8102    0.2761    6.9541 C.3     1  UNL1        0.0000
     17 C           6.7158    1.0048    9.9002 C.3     1  UNL1        0.0000
     18 SI          1.3418    5.1715    6.9741 Si      1  UNL1        0.0000
     19 C           1.7954    6.8711    6.2193 C.3     1  UNL1        0.0000
     20 C           0.5194    5.3675    8.6777 C.3     1  UNL1        0.0000
     21 C           0.2426    4.1730    5.7830 C.3     1  UNL1        0.0000
     22 H           4.9404    1.7569    5.9568 H       1  UNL1        0.0000
     23 H           2.8618    2.9705    5.4984 H       1  UNL1        0.0000
     24 H           3.5444    5.3957    8.9804 H       1  UNL1        0.0000
     25 H           8.0717    5.1667    7.7541 H       1  UNL1        0.0000
     26 H           7.7854    6.8007    7.1422 H       1  UNL1        0.0000
     27 H           6.5560    5.5518    6.9311 H       1  UNL1        0.0000
     28 H           7.2874    6.9997   10.8950 H       1  UNL1        0.0000
     29 H           8.2377    7.7140    9.5796 H       1  UNL1        0.0000
     30 H           8.5160    6.0357   10.0796 H       1  UNL1        0.0000
     31 H           5.0066    7.3332    9.7450 H       1  UNL1        0.0000
     32 H           4.9057    7.0363    7.9974 H       1  UNL1        0.0000
     33 H           5.9610    8.3038    8.6190 H       1  UNL1        0.0000
     34 H           8.7104    3.0128    6.8254 H       1  UNL1        0.0000
     35 H           9.4105    1.6987    7.7450 H       1  UNL1        0.0000
     36 H           8.9854    3.1872    8.5617 H       1  UNL1        0.0000
     37 H           5.8518   -0.2259    7.0393 H       1  UNL1        0.0000
     38 H           7.5739   -0.4574    7.1887 H       1  UNL1        0.0000
     39 H           6.9565    0.5584    5.9158 H       1  UNL1        0.0000
     40 H           5.7032    0.6272   10.0232 H       1  UNL1        0.0000
     41 H           6.8955    1.7412   10.6734 H       1  UNL1        0.0000
     42 H           7.4021    0.1785   10.0592 H       1  UNL1        0.0000
     43 H           2.3523    6.7710    5.2918 H       1  UNL1        0.0000
     44 H           2.3944    7.4672    6.9019 H       1  UNL1        0.0000
     45 H           0.8965    7.4376    5.9990 H       1  UNL1        0.0000
     46 H           0.4430    4.4080    9.1820 H       1  UNL1        0.0000
     47 H          -0.4825    5.7741    8.5844 H       1  UNL1        0.0000
     48 H           1.0798    6.0339    9.3264 H       1  UNL1        0.0000
     49 H           0.6672    4.1049    4.7856 H       1  UNL1        0.0000
     50 H          -0.7323    4.6395    5.6855 H       1  UNL1        0.0000
     51 H           0.0859    3.1637    6.1520 H       1  UNL1        0.0000
@<TRIPOS>BOND
     1    49    21    1
     2    43    19    1
     3    23     4    1
     4    50    21    1
     5    21    51    1
     6    21    18    1
     7    39    16    1
     8    22     3    1
     9    45    19    1
    10    19    44    1
    11    19    18    1
    12     4     3    1
    13     4     5    2
    14     3     2    1
    15    34    15    1
    16    27    11    1
    17    16    37    1
    18    16    38    1
    19    16    14    1
    20    18     5    1
    21    18    20    1
    22    26    11    1
    23     5     6    1
    24    11    25    1
    25    11    10    1
    26     2    14    1
    27     2     1    1
    28    35    15    1
    29    15    14    1
    30    15    36    1
    31    32    13    1
    32    14    17    1
    33     6     1    1
    34     6    24    1
    35     1     7    1
    36    47    20    1
    37    33    13    1
    38    20    46    1
    39    20    48    1
    40    13    10    1
    41    13    31    1
    42    10     7    1
    43    10    12    1
    44    29    12    1
    45     7     8    2
    46     7     9    2
    47    17    40    1
    48    17    42    1
    49    17    41    1
    50    12    30    1
    51    12    28    1
