@<TRIPOS>MOLECULE
4,5,6,7,8,9
 36 36 0 0 0
SMALL
GASTEIGER

@<TRIPOS>ATOM
      1 S           1.8020    1.0313   -1.5244 S.3     1  UNL1        0.0000
      2 SI          3.6200   -0.5655    0.8001 Si      1  UNL1        0.0000
      3 SI          3.4933    2.9630   -3.6575 Si      1  UNL1        0.0000
      4 C           3.3787    1.6133   -1.0932 C.3     1  UNL1        0.0000
      5 C           3.8167    1.2303    0.2247 C.2     1  UNL1        0.0000
      6 C           4.3932    2.2619    0.9675 C.2     1  UNL1        0.0000
      7 C           4.5582    3.5468    0.4109 C.3     1  UNL1        0.0000
      8 C           4.3405    3.7816   -0.9713 C.2     1  UNL1        0.0000
      9 C           3.7963    2.7939   -1.7922 C.2     1  UNL1        0.0000
     10 C           3.9601   -1.6646   -0.7222 C.3     1  UNL1        0.0000
     11 C           4.9548   -0.8719    2.1279 C.3     1  UNL1        0.0000
     12 C           1.8946   -0.8761    1.5396 C.3     1  UNL1        0.0000
     13 C           4.7320    4.2658   -4.2947 C.3     1  UNL1        0.0000
     14 C           3.8822    1.2586   -4.4191 C.3     1  UNL1        0.0000
     15 C           1.7188    3.5286   -4.0605 C.3     1  UNL1        0.0000
     16 H           4.7107    2.0852    1.9874 H       1  UNL1        0.0000
     17 H           4.9801    4.3385    1.0216 H       1  UNL1        0.0000
     18 H           4.6230    4.7362   -1.3953 H       1  UNL1        0.0000
     19 H           3.1984   -1.5238   -1.4830 H       1  UNL1        0.0000
     20 H           4.9235   -1.4412   -1.1732 H       1  UNL1        0.0000
     21 H           3.9610   -2.7141   -0.4460 H       1  UNL1        0.0000
     22 H           4.9781   -1.9240    2.3892 H       1  UNL1        0.0000
     23 H           5.9468   -0.5980    1.7824 H       1  UNL1        0.0000
     24 H           4.7570   -0.3179    3.0397 H       1  UNL1        0.0000
     25 H           1.7795   -0.3563    2.4860 H       1  UNL1        0.0000
     26 H           1.1115   -0.5354    0.8691 H       1  UNL1        0.0000
     27 H           1.7390   -1.9346    1.7230 H       1  UNL1        0.0000
     28 H           5.7524    4.0360   -4.0043 H       1  UNL1        0.0000
     29 H           4.7006    4.3025   -5.3779 H       1  UNL1        0.0000
     30 H           4.5007    5.2622   -3.9319 H       1  UNL1        0.0000
     31 H           3.1798    0.5067   -4.0727 H       1  UNL1        0.0000
     32 H           3.8171    1.2987   -5.5015 H       1  UNL1        0.0000
     33 H           4.8826    0.9214   -4.1609 H       1  UNL1        0.0000
     34 H           1.5608    4.5700   -3.7978 H       1  UNL1        0.0000
     35 H           1.5247    3.4281   -5.1239 H       1  UNL1        0.0000
     36 H           0.9828    2.9308   -3.5316 H       1  UNL1        0.0000
@<TRIPOS>BOND
     1    32    14    1
     2    29    13    1
     3    35    15    1
     4    14    33    1
     5    14    31    1
     6    14     3    1
     7    13    28    1
     8    13    30    1
     9    13     3    1
    10    15    34    1
    11    15     3    1
    12    15    36    1
    13     3     9    1
    14     9     4    1
    15     9     8    2
    16     1     4    1
    17    19    10    1
    18    18     8    1
    19    20    10    1
    20     4     5    1
    21     8     7    1
    22    10    21    1
    23    10     2    1
    24     5     2    1
    25     5     6    2
    26     7     6    1
    27     7    17    1
    28     2    12    1
    29     2    11    1
    30    26    12    1
    31     6    16    1
    32    12    27    1
    33    12    25    1
    34    23    11    1
    35    11    22    1
    36    11    24    1
