@<TRIPOS>MOLECULE
4,5,6,7,8,9
 36 36 0 0 0
SMALL
GASTEIGER

@<TRIPOS>ATOM
      1 S           2.6567    5.6432    2.7466 S.2     1  UNL1        0.0000
      2 SI          2.3892    6.9579   -0.1536 Si      1  UNL1        0.0000
      3 SI          1.1357    3.0120    3.8008 Si      1  UNL1        0.0000
      4 C           1.7188    4.8027    1.6327 C.2     1  UNL1        0.0000
      5 C           1.6480    5.2528    0.2640 C.3     1  UNL1        0.0000
      6 C           0.7147    4.6473   -0.6090 C.2     1  UNL1        0.0000
      7 C           0.0143    3.4946   -0.2299 C.2     1  UNL1        0.0000
      8 C           0.2619    2.9186    1.0411 C.3     1  UNL1        0.0000
      9 C           1.0999    3.5584    1.9782 C.3     1  UNL1        0.0000
     10 C           4.2318    7.2757    0.2322 C.3     1  UNL1        0.0000
     11 C           2.2148    7.1732   -2.0468 C.3     1  UNL1        0.0000
     12 C           1.2730    8.2323    0.7239 C.3     1  UNL1        0.0000
     13 C           2.8730    2.4190    4.3123 C.3     1  UNL1        0.0000
     14 C          -0.0888    1.5571    3.9919 C.3     1  UNL1        0.0000
     15 C           0.4562    4.3978    4.9220 C.3     1  UNL1        0.0000
     16 H           0.5193    5.0948   -1.5747 H       1  UNL1        0.0000
     17 H          -0.7292    3.0564   -0.8926 H       1  UNL1        0.0000
     18 H          -0.3053    2.0446    1.3418 H       1  UNL1        0.0000
     19 H           4.4876    6.9868    1.2449 H       1  UNL1        0.0000
     20 H           4.9018    6.7630   -0.4514 H       1  UNL1        0.0000
     21 H           4.4280    8.3395    0.1370 H       1  UNL1        0.0000
     22 H           2.7252    8.0781   -2.3570 H       1  UNL1        0.0000
     23 H           2.6519    6.3465   -2.5986 H       1  UNL1        0.0000
     24 H           1.1788    7.2699   -2.3542 H       1  UNL1        0.0000
     25 H           1.3748    8.1546    1.8013 H       1  UNL1        0.0000
     26 H           1.5468    9.2418    0.4353 H       1  UNL1        0.0000
     27 H           0.2245    8.0871    0.4775 H       1  UNL1        0.0000
     28 H           2.8974    2.2005    5.3751 H       1  UNL1        0.0000
     29 H           3.1573    1.5151    3.7809 H       1  UNL1        0.0000
     30 H           3.6168    3.1839    4.1165 H       1  UNL1        0.0000
     31 H          -1.1136    1.8746    3.8260 H       1  UNL1        0.0000
     32 H           0.1145    0.7318    3.3195 H       1  UNL1        0.0000
     33 H          -0.0310    1.1712    5.0038 H       1  UNL1        0.0000
     34 H           1.1795    5.1939    5.0545 H       1  UNL1        0.0000
     35 H          -0.4457    4.8393    4.5064 H       1  UNL1        0.0000
     36 H           0.2102    3.9983    5.9011 H       1  UNL1        0.0000
@<TRIPOS>BOND
     1    23    11    1
     2    22    11    1
     3    24    11    1
     4    11     2    1
     5    16     6    1
     6    17     7    1
     7     6     7    2
     8     6     5    1
     9    20    10    1
    10     7     8    1
    11     2    10    1
    12     2     5    1
    13     2    12    1
    14    21    10    1
    15    10    19    1
    16     5     4    1
    17    26    12    1
    18    27    12    1
    19    12    25    1
    20     8    18    1
    21     8     9    1
    22     4     9    1
    23     4     1    2
    24     9     3    1
    25    32    14    1
    26    29    13    1
    27     3    14    1
    28     3    13    1
    29     3    15    1
    30    31    14    1
    31    14    33    1
    32    30    13    1
    33    13    28    1
    34    35    15    1
    35    15    34    1
    36    15    36    1
