@<TRIPOS>MOLECULE
1,3,4,6,10,11
 24 24 0 0 0
SMALL
GASTEIGER

@<TRIPOS>ATOM
      1 C          -0.0147   11.4171    5.6101 C.ar    1  UNL1       -0.0586
      2 H          -0.5111   12.1326    6.2558 H       1  UNL1        0.0620
      3 C           1.9639   10.8114    4.2710 C.ar    1  UNL1       -0.0448
      4 C           1.3217   11.6451    5.2244 C.ar    1  UNL1       -0.0581
      5 H           1.8378   12.5256    5.5928 H       1  UNL1        0.0620
      6 C           1.2465    9.6997    3.8022 C.ar    1  UNL1       -0.0581
      7 H           1.6926    9.0345    3.0706 H       1  UNL1        0.0620
      8 C           3.3482   11.1338    3.7640 C.3     1  UNL1       -0.0215
      9 H           3.8011   11.8577    4.4500 H       1  UNL1        0.0343
     10 C          -0.7666   10.3472    5.0614 C.ar    1  UNL1       -0.0504
     11 C          -0.1035    9.4658    4.1945 C.ar    1  UNL1       -0.0586
     12 H          -0.6456    8.6400    3.7437 H       1  UNL1        0.0620
     13 C           3.2341   11.7828    2.3800 C.3     1  UNL1       -0.0587
     14 H           2.7751   11.0953    1.6723 H       1  UNL1        0.0235
     15 H           4.2226   12.0464    2.0132 H       1  UNL1        0.0235
     16 H           2.6289   12.6864    2.4255 H       1  UNL1        0.0235
     17 C          -2.2294   10.2097    5.3501 C.3     1  UNL1       -0.0397
     18 H          -2.5910    9.2252    5.0632 H       1  UNL1        0.0278
     19 H          -2.7838   10.9621    4.7867 H       1  UNL1        0.0278
     20 H          -2.4335   10.3610    6.4091 H       1  UNL1        0.0278
     21 C           4.2466    9.8960    3.7170 C.3     1  UNL1       -0.0587
     22 H           4.2041    9.3523    4.6589 H       1  UNL1        0.0235
     23 H           5.2773   10.1941    3.5435 H       1  UNL1        0.0235
     24 H           3.9526    9.2204    2.9178 H       1  UNL1        0.0235
@<TRIPOS>BOND
     1    14    13    1
     2    15    13    1
     3    13    16    1
     4    13     8    1
     5    24    21    1
     6     7     6    1
     7    23    21    1
     8    21     8    1
     9    21    22    1
    10    12    11    1
    11     8     3    1
    12     8     9    1
    13     6    11   ar
    14     6     3   ar
    15    11    10   ar
    16     3     4   ar
    17    19    17    1
    18    10    17    1
    19    10     1   ar
    20    18    17    1
    21     4     5    1
    22     4     1   ar
    23    17    20    1
    24     1     2    1
