@<TRIPOS>MOLECULE
29,30,32,34,36,38
 80 83 0 0 0
SMALL
GASTEIGER

@<TRIPOS>ATOM
      1 SI          7.8425    3.2346   12.5587 Si      1  UNL1        0.0000
      2 O           6.6343    4.7116    7.6300 O.3     1  UNL1        0.0000
      3 O          11.8935    8.1222    7.3850 O.3     1  UNL1        0.0000
      4 O           9.1990    1.6270   10.1840 O.2     1  UNL1        0.0000
      5 C           7.7445    4.4094    8.4478 C.3     1  UNL1        0.0000
      6 C           7.4088    4.5612    9.9304 C.2     1  UNL1        0.0000
      7 C           7.8763    3.5498   10.6804 C.2     1  UNL1        0.0000
      8 C           8.5539    2.5756    9.8051 C.2     1  UNL1        0.0000
      9 C           8.2997    2.9625    8.3561 C.3     1  UNL1        0.0000
     10 H           7.4999    2.2965    8.0114 H       1  UNL1        0.0000
     11 C           5.5719    3.7872    7.6151 C.3     1  UNL1        0.0000
     12 H           4.6982    4.3457    7.2815 H       1  UNL1        0.0000
     13 H           5.3788    3.3572    8.6041 H       1  UNL1        0.0000
     14 H           5.7564    2.9728    6.9043 H       1  UNL1        0.0000
     15 C           8.8387    5.4170    8.1306 C.ar    1  UNL1        0.0000
     16 C          10.0246    5.4087    8.8590 C.ar    1  UNL1        0.0000
     17 H          10.1720    4.6807    9.6444 H       1  UNL1        0.0000
     18 C          11.0227    6.3159    8.5847 C.ar    1  UNL1        0.0000
     19 H          11.9422    6.3184    9.1484 H       1  UNL1        0.0000
     20 C          10.8631    7.2565    7.5642 C.ar    1  UNL1        0.0000
     21 C           9.6918    7.2451    6.8171 C.ar    1  UNL1        0.0000
     22 H           9.5362    7.9435    6.0121 H       1  UNL1        0.0000
     23 C           8.6879    6.3381    7.1085 C.ar    1  UNL1        0.0000
     24 H           7.7845    6.3396    6.5231 H       1  UNL1        0.0000
     25 C          11.7500    9.1381    6.4184 C.3     1  UNL1        0.0000
     26 H          12.6514    9.7444    6.4936 H       1  UNL1        0.0000
     27 H          10.8728    9.7593    6.6212 H       1  UNL1        0.0000
     28 H          11.6774    8.7219    5.4088 H       1  UNL1        0.0000
     29 C           6.7298    5.7800   10.3749 C.2     1  UNL1        0.0000
     30 C           7.4813    6.8807   10.8052 C.2     1  UNL1        0.0000
     31 H           8.5629    6.8190   10.7976 H       1  UNL1        0.0000
     32 C           6.8509    7.9941   11.3939 C.2     1  UNL1        0.0000
     33 H           7.4538    8.7846   11.8232 H       1  UNL1        0.0000
     34 C           5.4614    8.0242   11.5118 C.2     1  UNL1        0.0000
     35 H           4.9791    8.8358   12.0429 H       1  UNL1        0.0000
     36 C           4.6887    6.9600   11.0146 C.3     1  UNL1        0.0000
     37 H           3.6154    6.9552   11.1599 H       1  UNL1        0.0000
     38 C           5.3178    5.8728   10.4014 C.3     1  UNL1        0.0000
     39 H           4.7233    5.0231   10.0888 H       1  UNL1        0.0000
     40 C           9.5729    3.6649   13.2948 C.3     1  UNL1        0.0000
     41 H           9.4953    3.6016   14.3854 H       1  UNL1        0.0000
     42 C           9.9941    5.0932   12.9497 C.3     1  UNL1        0.0000
     43 H          10.9306    5.3452   13.4459 H       1  UNL1        0.0000
     44 H           9.2405    5.8133   13.2607 H       1  UNL1        0.0000
     45 H          10.1457    5.1965   11.8778 H       1  UNL1        0.0000
     46 C          10.6645    2.6871   12.8676 C.3     1  UNL1        0.0000
     47 H          11.6241    2.9822   13.2907 H       1  UNL1        0.0000
     48 H          10.7628    2.6596   11.7866 H       1  UNL1        0.0000
     49 H          10.4384    1.6807   13.2076 H       1  UNL1        0.0000
     50 C           7.4759    1.3567   12.7764 C.3     1  UNL1        0.0000
     51 H           8.3574    0.8320   12.3978 H       1  UNL1        0.0000
     52 C           6.2923    0.8643   11.9438 C.3     1  UNL1        0.0000
     53 H           6.2022   -0.2179   12.0263 H       1  UNL1        0.0000
     54 H           6.4332    1.1093   10.8935 H       1  UNL1        0.0000
     55 H           5.3574    1.3050   12.2789 H       1  UNL1        0.0000
     56 C           7.2932    0.9510   14.2375 C.3     1  UNL1        0.0000
     57 H           7.2137   -0.1319   14.3230 H       1  UNL1        0.0000
     58 H           6.3852    1.3842   14.6510 H       1  UNL1        0.0000
     59 H           8.1365    1.2774   14.8413 H       1  UNL1        0.0000
     60 C           6.5519    4.4124   13.3858 C.3     1  UNL1        0.0000
     61 H           6.6660    5.4022   12.9324 H       1  UNL1        0.0000
     62 C           5.1085    3.9695   13.1584 C.3     1  UNL1        0.0000
     63 H           4.4129    4.7458   13.4779 H       1  UNL1        0.0000
     64 H           4.8928    3.0739   13.7352 H       1  UNL1        0.0000
     65 H           4.9224    3.7535   12.1098 H       1  UNL1        0.0000
     66 C           6.7910    4.5863   14.8844 C.3     1  UNL1        0.0000
     67 H           6.0357    5.2460   15.3117 H       1  UNL1        0.0000
     68 H           7.7662    5.0230   15.0789 H       1  UNL1        0.0000
     69 H           6.7346    3.6325   15.4016 H       1  UNL1        0.0000
     70 C           9.4486    2.8350    7.3828 C.ar    1  UNL1        0.0000
     71 C          10.7178    2.4193    7.7540 C.ar    1  UNL1        0.0000
     72 H          10.9176    2.1202    8.7706 H       1  UNL1        0.0000
     73 C          11.7364    2.3655    6.8172 C.ar    1  UNL1        0.0000
     74 H          12.7205    2.0392    7.1197 H       1  UNL1        0.0000
     75 C          11.5000    2.7293    5.5042 C.ar    1  UNL1        0.0000
     76 H          12.2978    2.6908    4.7773 H       1  UNL1        0.0000
     77 C          10.2326    3.1399    5.1259 C.ar    1  UNL1        0.0000
     78 H          10.0369    3.4227    4.1021 H       1  UNL1        0.0000
     79 C           9.2139    3.1889    6.0576 C.ar    1  UNL1        0.0000
     80 H           8.2304    3.5213    5.7599 H       1  UNL1        0.0000
@<TRIPOS>BOND
     1    78    77    1
     2    76    75    1
     3    77    75   ar
     4    77    79   ar
     5    28    25    1
     6    75    73   ar
     7    80    79    1
     8    22    21    1
     9    79    70   ar
    10    25    26    1
    11    25    27    1
    12    25     3    1
    13    24    23    1
    14    21    23   ar
    15    21    20   ar
    16    73    74    1
    17    73    71   ar
    18    14    11    1
    19    23    15   ar
    20    12    11    1
    21    70    71   ar
    22    70     9    1
    23     3    20    1
    24    20    18   ar
    25    11     2    1
    26    11    13    1
    27     2     5    1
    28    71    72    1
    29    10     9    1
    30    15     5    1
    31    15    16   ar
    32     9     5    1
    33     9     8    1
    34     5     6    1
    35    18    16   ar
    36    18    19    1
    37    16    17    1
    38     8     4    2
    39     8     7    1
    40     6    29    1
    41     6     7    2
    42    39    38    1
    43    29    38    1
    44    29    30    2
    45    38    36    1
    46     7     1    1
    47    31    30    1
    48    30    32    1
    49    54    52    1
    50    36    37    1
    51    36    34    1
    52    32    34    2
    53    32    33    1
    54    34    35    1
    55    48    46    1
    56    45    42    1
    57    52    53    1
    58    52    55    1
    59    52    50    1
    60    65    62    1
    61    51    50    1
    62     1    50    1
    63     1    40    1
    64     1    60    1
    65    50    56    1
    66    46    49    1
    67    46    47    1
    68    46    40    1
    69    61    60    1
    70    42    44    1
    71    42    40    1
    72    42    43    1
    73    62    60    1
    74    62    63    1
    75    62    64    1
    76    40    41    1
    77    60    66    1
    78    56    57    1
    79    56    58    1
    80    56    59    1
    81    66    68    1
    82    66    67    1
    83    66    69    1
