@<TRIPOS>MOLECULE
19,20,22,24,26,28
 71 72 0 0 0
SMALL
GASTEIGER

@<TRIPOS>ATOM
      1 SI          6.3999    1.5256    2.6387 Si      1  UNL1        0.0000
      2 SI          4.9611    2.3901    8.0876 Si      1  UNL1        0.0000
      3 O           7.7272    4.6885    6.7102 O.3     1  UNL1        0.0000
      4 O           4.4556    1.6498    5.0968 O.2     1  UNL1        0.0000
      5 C           7.2984    3.3707    6.4004 C.3     1  UNL1        0.0000
      6 C           7.6248    2.9949    4.9477 C.2     1  UNL1        0.0000
      7 C           6.6267    2.3210    4.3541 C.2     1  UNL1        0.0000
      8 C           5.4858    2.2599    5.2862 C.2     1  UNL1        0.0000
      9 C           5.7893    3.0992    6.4898 C.3     1  UNL1        0.0000
     10 H           5.2594    4.0374    6.3090 H       1  UNL1        0.0000
     11 C           6.9632    5.7617    6.2109 C.3     1  UNL1        0.0000
     12 H           7.6026    6.6380    6.2867 H       1  UNL1        0.0000
     13 H           6.0633    5.9314    6.8133 H       1  UNL1        0.0000
     14 H           6.6760    5.6140    5.1646 H       1  UNL1        0.0000
     15 C           8.1132    2.4650    7.3297 C.3     1  UNL1        0.0000
     16 H           7.7919    2.6114    8.3543 H       1  UNL1        0.0000
     17 H           9.1602    2.7492    7.2704 H       1  UNL1        0.0000
     18 H           7.9846    1.4233    7.0491 H       1  UNL1        0.0000
     19 C           8.9068    3.3906    4.3652 C.2     1  UNL1        0.0000
     20 C          10.1127    2.7263    4.7001 C.3     1  UNL1        0.0000
     21 H          10.0794    1.8753    5.3701 H       1  UNL1        0.0000
     22 C          11.2986    3.0192    4.0238 C.3     1  UNL1        0.0000
     23 H          12.1827    2.4168    4.1935 H       1  UNL1        0.0000
     24 C          11.3232    4.0475    3.0638 C.2     1  UNL1        0.0000
     25 H          12.2289    4.2336    2.4997 H       1  UNL1        0.0000
     26 C          10.1590    4.7559    2.7702 C.2     1  UNL1        0.0000
     27 H          10.1552    5.5012    1.9843 H       1  UNL1        0.0000
     28 C           8.9592    4.4365    3.4342 C.2     1  UNL1        0.0000
     29 H           8.0394    4.9289    3.1388 H       1  UNL1        0.0000
     30 C           8.0060    1.7218    1.5815 C.3     1  UNL1        0.0000
     31 H           8.3636    2.7516    1.6701 H       1  UNL1        0.0000
     32 C           9.1226    0.8016    2.0720 C.3     1  UNL1        0.0000
     33 H          10.0551    1.0201    1.5507 H       1  UNL1        0.0000
     34 H           8.8682   -0.2377    1.8800 H       1  UNL1        0.0000
     35 H           9.2938    0.9193    3.1383 H       1  UNL1        0.0000
     36 C           7.7716    1.4548    0.0968 C.3     1  UNL1        0.0000
     37 H           8.7200    1.4520   -0.4405 H       1  UNL1        0.0000
     38 H           7.1426    2.2216   -0.3438 H       1  UNL1        0.0000
     39 H           7.2955    0.4894   -0.0560 H       1  UNL1        0.0000
     40 C           6.0698   -0.3600    2.8894 C.3     1  UNL1        0.0000
     41 H           6.5122   -0.8982    2.0430 H       1  UNL1        0.0000
     42 C           6.7417   -0.8731    4.1647 C.3     1  UNL1        0.0000
     43 H           6.6204   -1.9524    4.2488 H       1  UNL1        0.0000
     44 H           6.2832   -0.4135    5.0365 H       1  UNL1        0.0000
     45 H           7.8052   -0.6486    4.1777 H       1  UNL1        0.0000
     46 C           4.5863   -0.7203    2.9379 C.3     1  UNL1        0.0000
     47 H           4.4654   -1.7905    3.1028 H       1  UNL1        0.0000
     48 H           4.0843   -0.4634    2.0098 H       1  UNL1        0.0000
     49 H           4.0992   -0.1905    3.7506 H       1  UNL1        0.0000
     50 C           4.8814    2.5021    1.9574 C.3     1  UNL1        0.0000
     51 H           4.0647    2.2864    2.6523 H       1  UNL1        0.0000
     52 C           4.4018    2.1093    0.5616 C.3     1  UNL1        0.0000
     53 H           3.4135    2.5272    0.3736 H       1  UNL1        0.0000
     54 H           4.3402    1.0311    0.4479 H       1  UNL1        0.0000
     55 H           5.0718    2.4923   -0.2031 H       1  UNL1        0.0000
     56 C           5.1300    4.0103    2.0017 C.3     1  UNL1        0.0000
     57 H           4.2457    4.5522    1.6694 H       1  UNL1        0.0000
     58 H           5.9583    4.2848    1.3505 H       1  UNL1        0.0000
     59 H           5.3638    4.3339    3.0140 H       1  UNL1        0.0000
     60 C           5.2810    0.5176    8.2395 C.3     1  UNL1        0.0000
     61 H           4.6759    0.0972    9.0368 H       1  UNL1        0.0000
     62 H           6.3176    0.2813    8.4585 H       1  UNL1        0.0000
     63 H           5.0065    0.0077    7.3211 H       1  UNL1        0.0000
     64 C           3.0929    2.7092    7.8833 C.3     1  UNL1        0.0000
     65 H           2.5298    2.2701    8.7012 H       1  UNL1        0.0000
     66 H           2.7284    2.2740    6.9584 H       1  UNL1        0.0000
     67 H           2.8646    3.7716    7.8631 H       1  UNL1        0.0000
     68 C           5.6022    3.3567    9.6067 C.3     1  UNL1        0.0000
     69 H           4.7721    3.7067   10.2115 H       1  UNL1        0.0000
     70 H           6.1907    4.2246    9.3255 H       1  UNL1        0.0000
     71 H           6.2200    2.7342   10.2459 H       1  UNL1        0.0000
@<TRIPOS>BOND
     1    37    36    1
     2    38    36    1
     3    55    52    1
     4    39    36    1
     5    36    30    1
     6    53    52    1
     7    54    52    1
     8    52    50    1
     9    58    56    1
    10    33    32    1
    11    30    31    1
    12    30    32    1
    13    30     1    1
    14    57    56    1
    15    34    32    1
    16    50    56    1
    17    50     1    1
    18    50    51    1
    19    27    26    1
    20    56    59    1
    21    48    46    1
    22    41    40    1
    23    32    35    1
    24    25    24    1
    25     1    40    1
    26     1     7    1
    27    26    24    2
    28    26    28    1
    29    40    46    1
    30    40    42    1
    31    46    47    1
    32    46    49    1
    33    24    22    1
    34    29    28    1
    35    28    19    2
    36    22    23    1
    37    22    20    1
    38    42    45    1
    39    42    43    1
    40    42    44    1
    41     7     6    2
    42     7     8    1
    43    19    20    1
    44    19     6    1
    45    20    21    1
    46     6     5    1
    47     4     8    2
    48    14    11    1
    49     8     9    1
    50    11    12    1
    51    11     3    1
    52    11    13    1
    53    10     9    1
    54     5     9    1
    55     5     3    1
    56     5    15    1
    57     9     2    1
    58    66    64    1
    59    18    15    1
    60    17    15    1
    61    63    60    1
    62    15    16    1
    63    67    64    1
    64    64     2    1
    65    64    65    1
    66     2    60    1
    67     2    68    1
    68    60    62    1
    69    60    61    1
    70    70    68    1
    71    68    69    1
    72    68    71    1
