@<TRIPOS>MOLECULE
2,4,6,8,10,12
 60 61 0 0 0
SMALL
GASTEIGER

@<TRIPOS>ATOM
      1 SI         -2.4311    7.0009    4.9697 Si      1  UNL1        0.0000
      2 C          -6.5126    4.1953    2.9092 C.3     1  UNL1        0.0000
      3 H          -7.3607    4.8680    2.9539 H       1  UNL1        0.0000
      4 C          -6.6739    2.9050    2.4086 C.2     1  UNL1        0.0000
      5 H          -7.6421    2.5781    2.0495 H       1  UNL1        0.0000
      6 C          -5.5889    2.0074    2.4144 C.2     1  UNL1        0.0000
      7 H          -5.7322    0.9887    2.0744 H       1  UNL1        0.0000
      8 C          -4.3644    2.3985    2.9582 C.3     1  UNL1        0.0000
      9 H          -3.5499    1.6885    3.0399 H       1  UNL1        0.0000
     10 C          -4.2084    3.7006    3.4681 C.3     1  UNL1        0.0000
     11 H          -3.2771    3.9779    3.9451 H       1  UNL1        0.0000
     12 C          -5.2826    4.6034    3.4937 C.3     1  UNL1        0.0000
     13 C          -5.1368    5.9521    4.0621 C.2     1  UNL1        0.0000
     14 C          -6.1239    6.5559    4.7556 C.2     1  UNL1        0.0000
     15 O          -7.2770    5.8895    5.1490 O.2     1  UNL1        0.0000
     16 C          -6.1236    7.9923    5.0933 C.3     1  UNL1        0.0000
     17 H          -5.2773    8.5257    4.6873 H       1  UNL1        0.0000
     18 C          -6.6921    8.4758    6.4042 C.3     1  UNL1        0.0000
     19 H          -7.0884    7.7375    7.0845 H       1  UNL1        0.0000
     20 H          -6.1989    9.3033    6.8916 H       1  UNL1        0.0000
     21 C          -7.4414    8.7263    5.1405 C.3     1  UNL1        0.0000
     22 H          -7.4697    9.7269    4.7386 H       1  UNL1        0.0000
     23 H          -8.3331    8.1471    4.9610 H       1  UNL1        0.0000
     24 C          -7.1073    4.8063    6.0345 C.3     1  UNL1        0.0000
     25 H          -8.1098    4.4431    6.2568 H       1  UNL1        0.0000
     26 H          -6.6237    5.1258    6.9635 H       1  UNL1        0.0000
     27 H          -6.5214    3.9922    5.5952 H       1  UNL1        0.0000
     28 C          -3.8637    6.6402    3.7356 C.2     1  UNL1        0.0000
     29 O          -3.1754    7.2090    1.4498 O.2     1  UNL1        0.0000
     30 C          -3.5450    6.8888    2.5060 C.1     1  UNL1        0.0000
     31 C          -1.7219    8.6985    4.3932 C.3     1  UNL1        0.0000
     32 H          -1.4932    8.5838    3.3281 H       1  UNL1        0.0000
     33 C          -2.7571    9.8186    4.5006 C.3     1  UNL1        0.0000
     34 H          -2.3262   10.7620    4.1687 H       1  UNL1        0.0000
     35 H          -3.0968    9.9452    5.5260 H       1  UNL1        0.0000
     36 H          -3.6157    9.6063    3.8691 H       1  UNL1        0.0000
     37 C          -1.1230    5.5838    4.7958 C.3     1  UNL1        0.0000
     38 H          -1.6458    4.6339    4.9569 H       1  UNL1        0.0000
     39 C          -0.4267    9.1257    5.0817 C.3     1  UNL1        0.0000
     40 H          -0.1137   10.1018    4.7131 H       1  UNL1        0.0000
     41 H           0.3747    8.4234    4.8729 H       1  UNL1        0.0000
     42 H          -0.5520    9.1971    6.1582 H       1  UNL1        0.0000
     43 C           0.0049    5.6176    5.8289 C.3     1  UNL1        0.0000
     44 H           0.6624    4.7602    5.6884 H       1  UNL1        0.0000
     45 H          -0.3852    5.5780    6.8421 H       1  UNL1        0.0000
     46 H           0.6050    6.5163    5.7306 H       1  UNL1        0.0000
     47 C          -0.5307    5.5436    3.3870 C.3     1  UNL1        0.0000
     48 H           0.1441    4.6953    3.2821 H       1  UNL1        0.0000
     49 H           0.0348    6.4487    3.1825 H       1  UNL1        0.0000
     50 H          -1.3074    5.4523    2.6322 H       1  UNL1        0.0000
     51 C          -3.2380    6.9603    6.7206 C.3     1  UNL1        0.0000
     52 H          -4.2130    7.4459    6.6490 H       1  UNL1        0.0000
     53 C          -3.4877    5.5261    7.1879 C.3     1  UNL1        0.0000
     54 H          -4.0460    5.5246    8.1235 H       1  UNL1        0.0000
     55 H          -2.5515    5.0017    7.3590 H       1  UNL1        0.0000
     56 H          -4.0598    4.9721    6.4483 H       1  UNL1        0.0000
     57 C          -2.4419    7.7194    7.7797 C.3     1  UNL1        0.0000
     58 H          -2.9365    7.6432    8.7476 H       1  UNL1        0.0000
     59 H          -2.3664    8.7727    7.5253 H       1  UNL1        0.0000
     60 H          -1.4372    7.3190    7.8838 H       1  UNL1        0.0000
@<TRIPOS>BOND
     1    29    30    2
     2     5     4    1
     3     7     6    1
     4     4     6    2
     5     4     2    1
     6     6     8    1
     7    30    28    2
     8    50    47    1
     9     2     3    1
    10     2    12    1
    11     8     9    1
    12     8    10    1
    13    49    47    1
    14    48    47    1
    15    32    31    1
    16    47    37    1
    17    10    12    1
    18    10    11    1
    19    12    13    1
    20    28    13    1
    21    28     1    1
    22    36    33    1
    23    13    14    2
    24    34    33    1
    25    31    33    1
    26    31     1    1
    27    31    39    1
    28    33    35    1
    29    17    16    1
    30    40    39    1
    31    22    21    1
    32    14    16    1
    33    14    15    1
    34    37    38    1
    35    37     1    1
    36    37    43    1
    37    41    39    1
    38    23    21    1
    39     1    51    1
    40    39    42    1
    41    16    21    1
    42    16    18    1
    43    21    18    1
    44    15    24    1
    45    27    24    1
    46    44    43    1
    47    46    43    1
    48    43    45    1
    49    24    25    1
    50    24    26    1
    51    18    20    1
    52    18    19    1
    53    56    53    1
    54    52    51    1
    55    51    53    1
    56    51    57    1
    57    53    55    1
    58    53    54    1
    59    59    57    1
    60    57    60    1
    61    57    58    1
