@<TRIPOS>MOLECULE
8,9,10,11,12,13
 62 66 0 0 0
SMALL
GASTEIGER

@<TRIPOS>ATOM
      1 SI         -0.8531    7.0368    7.5048 Si      1  UNL1        0.0000
      2 S          -3.2800    0.8143   10.8286 S.3     1  UNL1        0.0000
      3 S          -3.6213    3.4852    9.5374 S.3     1  UNL1        0.0000
      4 S          -2.9346    1.5599    2.8654 S.3     1  UNL1        0.0000
      5 S          -3.4190    3.9460    4.5944 S.3     1  UNL1        0.0000
      6 C          -2.8121    1.8390    9.3766 C.3     1  UNL1        0.0000
      7 C          -1.2733    2.0528    9.4782 C.3     1  UNL1        0.0000
      8 C          -0.8051    2.9157    8.3423 C.2     1  UNL1        0.0000
      9 C          -0.8130    4.3137    8.4513 C.2     1  UNL1        0.0000
     10 C          -0.7390    5.1538    7.3265 C.3     1  UNL1        0.0000
     11 C          -0.7163    4.5423    6.0584 C.2     1  UNL1        0.0000
     12 C          -0.7040    3.1514    5.9011 C.2     1  UNL1        0.0000
     13 C          -0.6084    2.3522    7.0632 C.3     1  UNL1        0.0000
     14 C          -1.0662    2.5205    4.5877 C.3     1  UNL1        0.0000
     15 C          -2.6051    2.2960    4.5168 C.3     1  UNL1        0.0000
     16 C          -3.0161    1.4057    5.6548 C.ar    1  UNL1        0.0000
     17 C          -3.0187    0.0220    5.5335 C.ar    1  UNL1        0.0000
     18 C          -3.1264   -0.7710    6.6625 C.ar    1  UNL1        0.0000
     19 C          -3.1226   -0.2024    7.9240 C.ar    1  UNL1        0.0000
     20 C          -3.1201    1.1798    8.0624 C.ar    1  UNL1        0.0000
     21 C          -3.1498    1.9708    6.9188 C.ar    1  UNL1        0.0000
     22 C          -5.0828    0.7164   10.5726 C.3     1  UNL1        0.0000
     23 C          -5.7536    2.0786   10.6330 C.3     1  UNL1        0.0000
     24 C          -5.3614    2.9573    9.4565 C.3     1  UNL1        0.0000
     25 C          -4.7512    1.4219    2.9422 C.3     1  UNL1        0.0000
     26 C          -5.4316    2.7739    3.0773 C.3     1  UNL1        0.0000
     27 C          -5.1527    3.4177    4.4255 C.3     1  UNL1        0.0000
     28 C           0.0929    7.8324    6.0561 C.3     1  UNL1        0.0000
     29 C          -2.7157    7.4649    7.4536 C.3     1  UNL1        0.0000
     30 C          -0.0599    7.5190    9.1679 C.3     1  UNL1        0.0000
     31 H          -0.7998    1.0680    9.4569 H       1  UNL1        0.0000
     32 H          -1.0624    2.5191   10.4427 H       1  UNL1        0.0000
     33 H          -0.9886    4.7546    9.4260 H       1  UNL1        0.0000
     34 H          -0.8175    5.1623    5.1750 H       1  UNL1        0.0000
     35 H          -0.5901    1.2714    6.9594 H       1  UNL1        0.0000
     36 H          -0.5835    1.5480    4.4624 H       1  UNL1        0.0000
     37 H          -0.7820    3.1601    3.7498 H       1  UNL1        0.0000
     38 H          -2.9021   -0.4353    4.5624 H       1  UNL1        0.0000
     39 H          -3.1446   -1.8454    6.5608 H       1  UNL1        0.0000
     40 H          -3.0868   -0.8329    8.7998 H       1  UNL1        0.0000
     41 H          -3.2072    3.0463    7.0171 H       1  UNL1        0.0000
     42 H          -5.4358    0.0718   11.3765 H       1  UNL1        0.0000
     43 H          -5.2659    0.2285    9.6130 H       1  UNL1        0.0000
     44 H          -5.4857    2.5784   11.5665 H       1  UNL1        0.0000
     45 H          -6.8378    1.9352   10.6187 H       1  UNL1        0.0000
     46 H          -5.5152    2.4404    8.5065 H       1  UNL1        0.0000
     47 H          -5.9301    3.8864    9.4557 H       1  UNL1        0.0000
     48 H          -5.0094    0.7651    3.7755 H       1  UNL1        0.0000
     49 H          -5.0259    0.9386    2.0055 H       1  UNL1        0.0000
     50 H          -6.5111    2.6340    2.9711 H       1  UNL1        0.0000
     51 H          -5.0912    3.4373    2.2791 H       1  UNL1        0.0000
     52 H          -5.7314    4.3323    4.5493 H       1  UNL1        0.0000
     53 H          -5.3804    2.7340    5.2465 H       1  UNL1        0.0000
     54 H          -0.4224    7.6939    5.1105 H       1  UNL1        0.0000
     55 H           0.2044    8.9010    6.2078 H       1  UNL1        0.0000
     56 H           1.0880    7.4074    5.9585 H       1  UNL1        0.0000
     57 H          -3.1664    7.1493    6.5166 H       1  UNL1        0.0000
     58 H          -3.2552    6.9733    8.2585 H       1  UNL1        0.0000
     59 H          -2.8741    8.5339    7.5534 H       1  UNL1        0.0000
     60 H          -0.6735    7.2184   10.0118 H       1  UNL1        0.0000
     61 H           0.9163    7.0557    9.2835 H       1  UNL1        0.0000
     62 H           0.0751    8.5935    9.2355 H       1  UNL1        0.0000
@<TRIPOS>BOND
     1    49    25    1
     2    51    26    1
     3     4    25    1
     4     4    15    1
     5    25    26    1
     6    25    48    1
     7    50    26    1
     8    26    27    1
     9    37    14    1
    10    27    52    1
    11    27     5    1
    12    27    53    1
    13    36    14    1
    14    15    14    1
    15    15     5    1
    16    15    16    1
    17    38    17    1
    18    14    12    1
    19    54    28    1
    20    34    11    1
    21    17    16   ar
    22    17    18   ar
    23    16    21   ar
    24    12    11    2
    25    12    13    1
    26    56    28    1
    27    28    55    1
    28    28     1    1
    29    11    10    1
    30    57    29    1
    31    39    18    1
    32    18    19   ar
    33    21    41    1
    34    21    20   ar
    35    35    13    1
    36    13     8    1
    37    10     1    1
    38    10     9    1
    39    29     1    1
    40    29    59    1
    41    29    58    1
    42     1    30    1
    43    19    20   ar
    44    19    40    1
    45    20     6    1
    46     8     9    2
    47     8     7    1
    48     9    33    1
    49    46    24    1
    50    30    62    1
    51    30    61    1
    52    30    60    1
    53     6     7    1
    54     6     3    1
    55     6     2    1
    56    47    24    1
    57    24     3    1
    58    24    23    1
    59    31     7    1
    60     7    32    1
    61    43    22    1
    62    22    23    1
    63    22     2    1
    64    22    42    1
    65    45    23    1
    66    23    44    1
