@<TRIPOS>MOLECULE
2,3,5,7,9,11
 35 37 0 0 0
SMALL
GASTEIGER

@<TRIPOS>ATOM
      1 SI          0.3040    2.0241   10.7722 Si      1  UNL1        0.0000
      2 C          -0.0345    1.4788    9.0117 C.3     1  UNL1        0.0000
      3 C          -0.3376    0.1303    8.7457 C.3     1  UNL1        0.0000
      4 H          -0.2805   -0.5842    9.5625 H       1  UNL1        0.0000
      5 C          -0.8986   -0.2792    7.5201 C.3     1  UNL1        0.0000
      6 H          -1.2436   -1.2994    7.3887 H       1  UNL1        0.0000
      7 C          -1.0731    0.6635    6.5042 C.3     1  UNL1        0.0000
      8 H          -1.5779    0.3729    5.5871 H       1  UNL1        0.0000
      9 C          -0.7362    2.0169    6.7163 C.3     1  UNL1        0.0000
     10 H          -0.9608    2.7596    5.9579 H       1  UNL1        0.0000
     11 C          -0.1826    2.3996    7.9409 C.3     1  UNL1        0.0000
     12 H           0.0001    3.4545    8.1268 H       1  UNL1        0.0000
     13 C          -1.0144    1.2270   11.8762 C.ar    1  UNL1        0.0000
     14 C          -2.2590    0.8533   11.3796 C.ar    1  UNL1        0.0000
     15 H          -2.4763    0.9890   10.3278 H       1  UNL1        0.0000
     16 C          -3.2237    0.3026   12.2041 C.ar    1  UNL1        0.0000
     17 H          -4.1841    0.0178   11.7973 H       1  UNL1        0.0000
     18 C          -2.9589    0.1153   13.5499 C.ar    1  UNL1        0.0000
     19 H          -3.7098   -0.3159   14.1964 H       1  UNL1        0.0000
     20 C          -1.7263    0.4833   14.0629 C.ar    1  UNL1        0.0000
     21 H          -1.5135    0.3401   15.1130 H       1  UNL1        0.0000
     22 C          -0.7688    1.0340   13.2311 C.ar    1  UNL1        0.0000
     23 H           0.1912    1.3211   13.6369 H       1  UNL1        0.0000
     24 C           0.0968    3.9008   10.9017 C.ar    1  UNL1        0.0000
     25 C          -1.1151    4.4950   10.5619 C.ar    1  UNL1        0.0000
     26 H          -1.9349    3.8735   10.2266 H       1  UNL1        0.0000
     27 C          -1.2902    5.8640   10.6468 C.ar    1  UNL1        0.0000
     28 H          -2.2391    6.3060   10.3764 H       1  UNL1        0.0000
     29 C          -0.2491    6.6687   11.0786 C.ar    1  UNL1        0.0000
     30 H          -0.3817    7.7392   11.1443 H       1  UNL1        0.0000
     31 C           0.9611    6.0941   11.4281 C.ar    1  UNL1        0.0000
     32 H           1.7764    6.7167   11.7691 H       1  UNL1        0.0000
     33 C           1.1275    4.7235   11.3401 C.ar    1  UNL1        0.0000
     34 H           2.0750    4.2822   11.6151 H       1  UNL1        0.0000
     35 H           1.6251    1.6484   11.3130 H       1  UNL1        0.0000
@<TRIPOS>BOND
     1     8     7    1
     2    10     9    1
     3     7     9    1
     4     7     5    1
     5     9    11    1
     6     6     5    1
     7     5     3    1
     8    11    12    1
     9    11     2    1
    10     3     2    1
    11     3     4    1
    12     2     1    1
    13    26    25    1
    14    15    14    1
    15    28    27    1
    16    25    27   ar
    17    25    24   ar
    18    27    29   ar
    19     1    24    1
    20     1    35    1
    21     1    13    1
    22    24    33   ar
    23    29    30    1
    24    29    31   ar
    25    33    31   ar
    26    33    34    1
    27    14    13   ar
    28    14    16   ar
    29    31    32    1
    30    17    16    1
    31    13    22   ar
    32    16    18   ar
    33    22    23    1
    34    22    20   ar
    35    18    20   ar
    36    18    19    1
    37    20    21    1
