@<TRIPOS>MOLECULE
3,4,5,63,64,65
 121 126 0 0 0
SMALL
GASTEIGER

@<TRIPOS>ATOM
      1 SI          8.5261    0.7035   15.4907 Si      1  UNL1        0.0000
      2 O          11.8234    1.1090   15.4202 O.3     1  UNL1        0.0000
      3 C           9.1235    3.9693   17.9117 C.3     1  UNL1        0.0000
      4 C           8.4087    2.8411   17.4614 C.3     1  UNL1        0.0000
      5 C           9.2530    2.0403   16.6335 C.3     1  UNL1        0.0000
      6 C          10.5400    2.6772   16.6441 C.ar    1  UNL1        0.0000
      7 C          10.4626    3.8693   17.4449 C.ar    1  UNL1        0.0000
      8 C          11.6073    4.6548   17.7097 C.ar    1  UNL1        0.0000
      9 C          12.8057    4.2189   17.1803 C.ar    1  UNL1        0.0000
     10 C          12.9051    3.0533   16.4129 C.ar    1  UNL1        0.0000
     11 C          11.7973    2.2768   16.1417 C.ar    1  UNL1        0.0000
     12 C           7.0468    2.4924   17.9883 C.3     1  UNL1        0.0000
     13 C          13.0665    0.6028   15.0085 C.3     1  UNL1        0.0000
     14 C          11.5409    5.8841   18.5139 C.ar    1  UNL1        0.0000
     15 C          10.4840    6.7728   18.3663 C.ar    1  UNL1        0.0000
     16 C          10.4288    7.9593   19.0867 C.ar    1  UNL1        0.0000
     17 C          11.4568    8.2310   19.9763 C.ar    1  UNL1        0.0000
     18 C          12.5281    7.3581   20.1583 C.ar    1  UNL1        0.0000
     19 C          12.5570    6.1885   19.4185 C.ar    1  UNL1        0.0000
     20 C           9.2410    8.8901   18.8839 C.3     1  UNL1        0.0000
     21 C           9.0748    9.1991   17.3891 C.3     1  UNL1        0.0000
     22 C           9.3972   10.2199   19.6272 C.3     1  UNL1        0.0000
     23 C           7.9803    8.1892   19.4093 C.3     1  UNL1        0.0000
     24 C          13.6160    7.7279   21.1570 C.3     1  UNL1        0.0000
     25 C          14.7240    6.6744   21.2408 C.3     1  UNL1        0.0000
     26 C          12.9909    7.8730   22.5515 C.3     1  UNL1        0.0000
     27 C          14.2557    9.0574   20.7323 C.3     1  UNL1        0.0000
     28 C           9.6094   -0.5410   14.5219 C.3     1  UNL1        0.0000
     29 H           8.7858    4.6389   18.6916 H       1  UNL1        0.0000
     30 H          13.7038    4.7951   17.3472 H       1  UNL1        0.0000
     31 H          13.8785    2.7705   16.0436 H       1  UNL1        0.0000
     32 H           6.3888    2.1087   17.2125 H       1  UNL1        0.0000
     33 H           6.5862    3.3687   18.4482 H       1  UNL1        0.0000
     34 H           7.1428    1.7249   18.7599 H       1  UNL1        0.0000
     35 H          12.8517   -0.3449   14.5167 H       1  UNL1        0.0000
     36 H          13.7309    0.4265   15.8603 H       1  UNL1        0.0000
     37 H          13.5613    1.2735   14.2970 H       1  UNL1        0.0000
     38 H           9.7061    6.5351   17.6565 H       1  UNL1        0.0000
     39 H          11.4338    9.1423   20.5490 H       1  UNL1        0.0000
     40 H          13.3570    5.4773   19.5389 H       1  UNL1        0.0000
     41 H           9.9909    9.6299   16.9907 H       1  UNL1        0.0000
     42 H           8.2662    9.9121   17.2423 H       1  UNL1        0.0000
     43 H           8.8395    8.3054   16.8175 H       1  UNL1        0.0000
     44 H          10.2949   10.7423   19.3040 H       1  UNL1        0.0000
     45 H           9.4395   10.0680   20.7033 H       1  UNL1        0.0000
     46 H           8.5408   10.8572   19.4151 H       1  UNL1        0.0000
     47 H           7.1097    8.8281   19.2763 H       1  UNL1        0.0000
     48 H           8.0873    7.9645   20.4687 H       1  UNL1        0.0000
     49 H           7.8037    7.2567   18.8792 H       1  UNL1        0.0000
     50 H          14.3275    5.7147   21.5638 H       1  UNL1        0.0000
     51 H          15.4716    6.9907   21.9659 H       1  UNL1        0.0000
     52 H          15.2190    6.5507   20.2804 H       1  UNL1        0.0000
     53 H          12.2418    8.6596   22.5709 H       1  UNL1        0.0000
     54 H          13.7581    8.1161   23.2841 H       1  UNL1        0.0000
     55 H          12.5138    6.9409   22.8468 H       1  UNL1        0.0000
     56 H          14.6760    8.9689   19.7326 H       1  UNL1        0.0000
     57 H          15.0543    9.3273   21.4206 H       1  UNL1        0.0000
     58 H          13.5277    9.8637   20.7245 H       1  UNL1        0.0000
     59 H           8.9611   -1.2636   14.0347 H       1  UNL1        0.0000
     60 H          10.2450   -1.0843   15.2118 H       1  UNL1        0.0000
     61 H          10.2443   -0.1035   13.7657 H       1  UNL1        0.0000
     62 O           5.2287    1.1090   15.5611 O.3     1  UNL1        0.0000
     63 C           7.9287    3.9693   13.0696 C.3     1  UNL1        0.0000
     64 C           8.6434    2.8412   13.5199 C.3     1  UNL1        0.0000
     65 C           7.7992    2.0404   14.3478 C.3     1  UNL1        0.0000
     66 C           6.5122    2.6772   14.3373 C.ar    1  UNL1        0.0000
     67 C           6.5896    3.8693   13.5364 C.ar    1  UNL1        0.0000
     68 C           5.4448    4.6548   13.2716 C.ar    1  UNL1        0.0000
     69 C           4.2465    4.2189   13.8010 C.ar    1  UNL1        0.0000
     70 C           4.1471    3.0534   14.5685 C.ar    1  UNL1        0.0000
     71 C           5.2549    2.2768   14.8396 C.ar    1  UNL1        0.0000
     72 C          10.0054    2.4925   12.9930 C.3     1  UNL1        0.0000
     73 C           3.9856    0.6029   15.9728 C.3     1  UNL1        0.0000
     74 C           5.5113    5.8841   12.4674 C.ar    1  UNL1        0.0000
     75 C           6.5682    6.7729   12.6150 C.ar    1  UNL1        0.0000
     76 C           6.6234    7.9593   11.8947 C.ar    1  UNL1        0.0000
     77 C           5.5954    8.2310   11.0050 C.ar    1  UNL1        0.0000
     78 C           4.5241    7.3581   10.8229 C.ar    1  UNL1        0.0000
     79 C           4.4953    6.1885   11.5628 C.ar    1  UNL1        0.0000
     80 C           7.8111    8.8902   12.0975 C.3     1  UNL1        0.0000
     81 C           7.9773    9.1991   13.5923 C.3     1  UNL1        0.0000
     82 C           7.6550   10.2200   11.3542 C.3     1  UNL1        0.0000
     83 C           9.0719    8.1893   11.5721 C.3     1  UNL1        0.0000
     84 C           3.4363    7.7278    9.8242 C.3     1  UNL1        0.0000
     85 C           2.3284    6.6743    9.7403 C.3     1  UNL1        0.0000
     86 C           4.0614    7.8730    8.4297 C.3     1  UNL1        0.0000
     87 C           2.7965    9.0574   10.2488 C.3     1  UNL1        0.0000
     88 C           7.4428   -0.5410   16.4594 C.3     1  UNL1        0.0000
     89 H           8.2664    4.6390   12.2897 H       1  UNL1        0.0000
     90 H           3.3484    4.7951   13.6341 H       1  UNL1        0.0000
     91 H           3.1737    2.7705   14.9377 H       1  UNL1        0.0000
     92 H          10.6634    2.1087   13.7688 H       1  UNL1        0.0000
     93 H          10.4660    3.3687   12.5331 H       1  UNL1        0.0000
     94 H           9.9094    1.7250   12.2213 H       1  UNL1        0.0000
     95 H           4.2005   -0.3449   16.4646 H       1  UNL1        0.0000
     96 H           3.3213    0.4266   15.1210 H       1  UNL1        0.0000
     97 H           3.4908    1.2735   16.6843 H       1  UNL1        0.0000
     98 H           7.3461    6.5351   13.3249 H       1  UNL1        0.0000
     99 H           5.6184    9.1423   10.4322 H       1  UNL1        0.0000
    100 H           3.6953    5.4773   11.4423 H       1  UNL1        0.0000
    101 H           7.0612    9.6299   13.9907 H       1  UNL1        0.0000
    102 H           8.7859    9.9122   13.7391 H       1  UNL1        0.0000
    103 H           8.2126    8.3054   14.1639 H       1  UNL1        0.0000
    104 H           6.7572   10.7424   11.6773 H       1  UNL1        0.0000
    105 H           7.6127   10.0681   10.2781 H       1  UNL1        0.0000
    106 H           8.5113   10.8573   11.5663 H       1  UNL1        0.0000
    107 H           9.9425    8.8282   11.7052 H       1  UNL1        0.0000
    108 H           8.9649    7.9646   10.5127 H       1  UNL1        0.0000
    109 H           9.2485    7.2567   12.1022 H       1  UNL1        0.0000
    110 H           2.7249    5.7146    9.4174 H       1  UNL1        0.0000
    111 H           1.5808    6.9906    9.0152 H       1  UNL1        0.0000
    112 H           1.8332    6.5507   10.7007 H       1  UNL1        0.0000
    113 H           4.8105    8.6596    8.4103 H       1  UNL1        0.0000
    114 H           3.2943    8.1160    7.6971 H       1  UNL1        0.0000
    115 H           4.5386    6.9408    8.1345 H       1  UNL1        0.0000
    116 H           2.3762    8.9688   11.2485 H       1  UNL1        0.0000
    117 H           1.9980    9.3273    9.5605 H       1  UNL1        0.0000
    118 H           3.5245    9.8637   10.2567 H       1  UNL1        0.0000
    119 H           8.0910   -1.2636   16.9465 H       1  UNL1        0.0000
    120 H           6.8072   -1.0844   15.7694 H       1  UNL1        0.0000
    121 H           6.8078   -0.1035   17.2156 H       1  UNL1        0.0000
@<TRIPOS>BOND
     1   114    86    1
     2   115    86    1
     3   113    86    1
     4    86    84    1
     5   111    85    1
     6   110    85    1
     7   117    87    1
     8    85    84    1
     9    85   112    1
    10    84    87    1
    11    84    78    1
    12    87   118    1
    13    87   116    1
    14   105    82    1
    15    99    77    1
    16   108    83    1
    17    78    77   ar
    18    78    79   ar
    19    77    76   ar
    20    82   106    1
    21    82   104    1
    22    82    80    1
    23   100    79    1
    24    79    74   ar
    25    83   107    1
    26    83    80    1
    27    83   109    1
    28    76    80    1
    29    76    75   ar
    30    80    81    1
    31    94    72    1
    32    89    63    1
    33    74    75   ar
    34    74    68    1
    35    93    72    1
    36    75    98    1
    37    72    64    1
    38    72    92    1
    39    63    64    1
    40    63    67    1
    41    68    67   ar
    42    68    69   ar
    43    64    65    1
    44    67    66   ar
    45    81   102    1
    46    81   101    1
    47    81   103    1
    48    90    69    1
    49    61    28    1
    50    69    70   ar
    51    59    28    1
    52    37    13    1
    53    66    65    1
    54    66    71   ar
    55    65     1    1
    56    35    13    1
    57    28    60    1
    58    28     1    1
    59    70    71   ar
    60    70    91    1
    61    71    62    1
    62    13     2    1
    63    13    36    1
    64    96    73    1
    65     2    11    1
    66     1    88    1
    67     1     5    1
    68    62    73    1
    69   120    88    1
    70    73    95    1
    71    73    97    1
    72    31    10    1
    73    11    10   ar
    74    11     6   ar
    75    10     9   ar
    76    88   119    1
    77    88   121    1
    78     5     6    1
    79     5     4    1
    80     6     7   ar
    81    43    21    1
    82    41    21    1
    83     9    30    1
    84     9     8   ar
    85    32    12    1
    86    42    21    1
    87    21    20    1
    88     7     8   ar
    89     7     3    1
    90     4     3    1
    91     4    12    1
    92    38    15    1
    93     8    14    1
    94     3    29    1
    95    12    33    1
    96    12    34    1
    97    15    14   ar
    98    15    16   ar
    99    14    19   ar
   100    49    23    1
   101    20    16    1
   102    20    23    1
   103    20    22    1
   104    16    17   ar
   105    47    23    1
   106    44    22    1
   107    23    48    1
   108    46    22    1
   109    19    40    1
   110    19    18   ar
   111    22    45    1
   112    56    27    1
   113    17    18   ar
   114    17    39    1
   115    18    24    1
   116    52    25    1
   117    58    27    1
   118    27    24    1
   119    27    57    1
   120    24    25    1
   121    24    26    1
   122    25    50    1
   123    25    51    1
   124    26    53    1
   125    26    55    1
   126    26    54    1
