@<TRIPOS>MOLECULE
3,4,5,45,46,47
 85 90 0 0 0
SMALL
GASTEIGER

@<TRIPOS>ATOM
      1 SI          9.8511   12.8404    3.3110 Si      1  UNL1        0.0000
      2 O           8.2930   12.4237    0.4074 O.3     1  UNL1        0.0000
      3 C           7.4463    9.5771    3.9931 C.3     1  UNL1        0.0000
      4 C           8.1904   10.7050    4.3914 C.3     1  UNL1        0.0000
      5 C           8.4978   11.5033    3.2467 C.3     1  UNL1        0.0000
      6 C           7.8584   10.8616    2.1322 C.ar    1  UNL1        0.0000
      7 C           7.1958    9.6730    2.5978 C.ar    1  UNL1        0.0000
      8 C           6.3897    8.8944    1.7375 C.ar    1  UNL1        0.0000
      9 C           6.2587    9.3262    0.4329 C.ar    1  UNL1        0.0000
     10 C           6.8883   10.4837   -0.0376 C.ar    1  UNL1        0.0000
     11 C           7.6753   11.2586    0.7896 C.ar    1  UNL1        0.0000
     12 C           8.4019   11.0564    5.8356 C.3     1  UNL1        0.0000
     13 C           8.0251   12.9367   -0.8718 C.3     1  UNL1        0.0000
     14 C           5.6906    7.6895    2.2073 C.ar    1  UNL1        0.0000
     15 C           6.3220    6.7677    3.0405 C.ar    1  UNL1        0.0000
     16 C           5.6693    5.6229    3.4665 C.ar    1  UNL1        0.0000
     17 C           4.3606    5.3993    3.0566 C.ar    1  UNL1        0.0000
     18 C           3.7069    6.3008    2.2296 C.ar    1  UNL1        0.0000
     19 C           4.3799    7.4394    1.8113 C.ar    1  UNL1        0.0000
     20 C           6.3651    4.6245    4.3439 C.3     1  UNL1        0.0000
     21 C           2.2853    6.0633    1.8142 C.3     1  UNL1        0.0000
     22 C          10.1580   14.0856    1.8905 C.3     1  UNL1        0.0000
     23 H           6.9429    8.8997    4.6700 H       1  UNL1        0.0000
     24 H           5.6587    8.7546   -0.2598 H       1  UNL1        0.0000
     25 H           6.7304   10.7645   -1.0672 H       1  UNL1        0.0000
     26 H           9.4027   11.4359    6.0266 H       1  UNL1        0.0000
     27 H           8.2240   10.1819    6.4638 H       1  UNL1        0.0000
     28 H           7.6858   11.8275    6.1294 H       1  UNL1        0.0000
     29 H           8.3946   12.2718   -1.6607 H       1  UNL1        0.0000
     30 H           8.5558   13.8863   -0.9268 H       1  UNL1        0.0000
     31 H           6.9546   13.1111   -1.0186 H       1  UNL1        0.0000
     32 H           7.3474    6.9364    3.3422 H       1  UNL1        0.0000
     33 H           3.8461    4.5075    3.3872 H       1  UNL1        0.0000
     34 H           3.8710    8.1547    1.1814 H       1  UNL1        0.0000
     35 H           6.5582    3.7066    3.7887 H       1  UNL1        0.0000
     36 H           5.7448    4.3694    5.2017 H       1  UNL1        0.0000
     37 H           7.3154    5.0152    4.7001 H       1  UNL1        0.0000
     38 H           2.0976    6.4712    0.8234 H       1  UNL1        0.0000
     39 H           1.6062    6.5529    2.5133 H       1  UNL1        0.0000
     40 H           2.0545    5.0004    1.8083 H       1  UNL1        0.0000
     41 H          10.4881   13.6469    0.9606 H       1  UNL1        0.0000
     42 H          10.9125   14.7994    2.2082 H       1  UNL1        0.0000
     43 H           9.2480   14.6394    1.6888 H       1  UNL1        0.0000
     44 O          11.4092   12.4237    6.2146 O.3     1  UNL1        0.0000
     45 C          12.2559    9.5771    2.6289 C.3     1  UNL1        0.0000
     46 C          11.5118   10.7050    2.2306 C.3     1  UNL1        0.0000
     47 C          11.2044   11.5033    3.3752 C.3     1  UNL1        0.0000
     48 C          11.8439   10.8616    4.4898 C.ar    1  UNL1        0.0000
     49 C          12.5064    9.6730    4.0242 C.ar    1  UNL1        0.0000
     50 C          13.3125    8.8944    4.8845 C.ar    1  UNL1        0.0000
     51 C          13.4435    9.3262    6.1891 C.ar    1  UNL1        0.0000
     52 C          12.8139   10.4837    6.6596 C.ar    1  UNL1        0.0000
     53 C          12.0269   11.2586    5.8323 C.ar    1  UNL1        0.0000
     54 C          11.3003   11.0564    0.7863 C.3     1  UNL1        0.0000
     55 C          11.6771   12.9367    7.4938 C.3     1  UNL1        0.0000
     56 C          14.0116    7.6895    4.4146 C.ar    1  UNL1        0.0000
     57 C          13.3803    6.7677    3.5815 C.ar    1  UNL1        0.0000
     58 C          14.0329    5.6229    3.1555 C.ar    1  UNL1        0.0000
     59 C          15.3416    5.3993    3.5654 C.ar    1  UNL1        0.0000
     60 C          15.9953    6.3008    4.3924 C.ar    1  UNL1        0.0000
     61 C          15.3223    7.4394    4.8106 C.ar    1  UNL1        0.0000
     62 C          13.3371    4.6245    2.2781 C.3     1  UNL1        0.0000
     63 C          17.4169    6.0633    4.8078 C.3     1  UNL1        0.0000
     64 C           9.5443   14.0856    4.7315 C.3     1  UNL1        0.0000
     65 H          12.7594    8.8997    1.9520 H       1  UNL1        0.0000
     66 H          14.0435    8.7546    6.8818 H       1  UNL1        0.0000
     67 H          12.9718   10.7645    7.6891 H       1  UNL1        0.0000
     68 H          10.2995   11.4359    0.5953 H       1  UNL1        0.0000
     69 H          11.4782   10.1819    0.1581 H       1  UNL1        0.0000
     70 H          12.0164   11.8275    0.4925 H       1  UNL1        0.0000
     71 H          11.3077   12.2719    8.2827 H       1  UNL1        0.0000
     72 H          11.1464   13.8863    7.5488 H       1  UNL1        0.0000
     73 H          12.7476   13.1111    7.6406 H       1  UNL1        0.0000
     74 H          12.3548    6.9364    3.2798 H       1  UNL1        0.0000
     75 H          15.8562    4.5075    3.2348 H       1  UNL1        0.0000
     76 H          15.8313    8.1548    5.4406 H       1  UNL1        0.0000
     77 H          13.1441    3.7066    2.8334 H       1  UNL1        0.0000
     78 H          13.9574    4.3693    1.4203 H       1  UNL1        0.0000
     79 H          12.3869    5.0152    1.9219 H       1  UNL1        0.0000
     80 H          17.6047    6.4713    5.7985 H       1  UNL1        0.0000
     81 H          18.0960    6.5529    4.1087 H       1  UNL1        0.0000
     82 H          17.6477    5.0005    4.8136 H       1  UNL1        0.0000
     83 H           9.2141   13.6469    5.6614 H       1  UNL1        0.0000
     84 H           8.7897   14.7994    4.4138 H       1  UNL1        0.0000
     85 H          10.4542   14.6395    4.9331 H       1  UNL1        0.0000
@<TRIPOS>BOND
     1    29    13    1
     2    25    10    1
     3    31    13    1
     4    30    13    1
     5    13     2    1
     6    24     9    1
     7    10     9   ar
     8    10    11   ar
     9    69    54    1
    10     2    11    1
    11     9     8   ar
    12    70    54    1
    13    68    54    1
    14    54    46    1
    15    11     6   ar
    16    38    21    1
    17    41    22    1
    18    34    19    1
    19    78    62    1
    20    43    22    1
    21     8    14    1
    22     8     7   ar
    23    40    21    1
    24    19    14   ar
    25    19    18   ar
    26    21    18    1
    27    21    39    1
    28    22    42    1
    29    22     1    1
    30    79    62    1
    31    65    45    1
    32     6     7   ar
    33     6     5    1
    34    14    15   ar
    35    18    17   ar
    36    46    45    1
    37    46    47    1
    38    62    77    1
    39    62    58    1
    40     7     3    1
    41    45    49    1
    42    15    32    1
    43    15    16   ar
    44    17    33    1
    45    17    16   ar
    46    58    59   ar
    47    58    57   ar
    48    75    59    1
    49     5     1    1
    50     5     4    1
    51    74    57    1
    52     1    47    1
    53     1    64    1
    54    47    48    1
    55    16    20    1
    56    59    60   ar
    57    57    56   ar
    58    35    20    1
    59     3     4    1
    60     3    23    1
    61    49    48   ar
    62    49    50   ar
    63    81    63    1
    64    20    37    1
    65    20    36    1
    66     4    12    1
    67    60    63    1
    68    60    61   ar
    69    84    64    1
    70    56    61   ar
    71    56    50    1
    72    48    53   ar
    73    64    85    1
    74    64    83    1
    75    63    82    1
    76    63    80    1
    77    61    76    1
    78    50    51   ar
    79    53    44    1
    80    53    52   ar
    81    12    26    1
    82    12    28    1
    83    12    27    1
    84    51    52   ar
    85    51    66    1
    86    44    55    1
    87    52    67    1
    88    55    72    1
    89    55    73    1
    90    55    71    1
