@<TRIPOS>MOLECULE
3,4,5,6,7,8
 36 38 0 0 0
SMALL
GASTEIGER

@<TRIPOS>ATOM
      1 SI          8.5764    5.3259   16.6463 Si      1  UNL1        0.0000
      2 O           8.4906    4.4832   15.2496 O.3     1  UNL1        0.0000
      3 C          10.1028    6.3910   16.3483 C.3     1  UNL1        0.0000
      4 C          10.4484    6.7933   15.0385 C.3     1  UNL1        0.0000
      5 C          11.5792    7.5699   14.7957 C.2     1  UNL1        0.0000
      6 C          12.4144    7.9388   15.8686 C.2     1  UNL1        0.0000
      7 C          12.0867    7.5610   17.1697 C.3     1  UNL1        0.0000
      8 C          10.9438    6.7713   17.3991 C.3     1  UNL1        0.0000
      9 C           7.0528    6.4241   16.9011 C.ar    1  UNL1        0.0000
     10 C           5.7924    5.8467   17.0307 C.ar    1  UNL1        0.0000
     11 C           4.6647    6.6225   17.2256 C.ar    1  UNL1        0.0000
     12 C           4.7774    8.0009   17.2977 C.ar    1  UNL1        0.0000
     13 C           6.0219    8.5940   17.1734 C.ar    1  UNL1        0.0000
     14 C           7.1453    7.8106   16.9784 C.ar    1  UNL1        0.0000
     15 C           8.8754    4.2334   18.1612 C.ar    1  UNL1        0.0000
     16 C           9.9038    3.2924   18.1375 C.ar    1  UNL1        0.0000
     17 C          10.1679    2.4991   19.2388 C.ar    1  UNL1        0.0000
     18 C           9.4040    2.6308   20.3868 C.ar    1  UNL1        0.0000
     19 C           8.3768    3.5588   20.4265 C.ar    1  UNL1        0.0000
     20 C           8.1190    4.3537   19.3239 C.ar    1  UNL1        0.0000
     21 H           8.0534    3.6408   15.1674 H       1  UNL1        0.0000
     22 H           9.7726    6.5518   14.2271 H       1  UNL1        0.0000
     23 H          11.7914    7.9359   13.7981 H       1  UNL1        0.0000
     24 H          13.2632    8.5890   15.6891 H       1  UNL1        0.0000
     25 H          12.6799    7.9116   18.0064 H       1  UNL1        0.0000
     26 H          10.6676    6.5229   18.4187 H       1  UNL1        0.0000
     27 H           5.6978    4.7711   16.9797 H       1  UNL1        0.0000
     28 H           3.6965    6.1535   17.3243 H       1  UNL1        0.0000
     29 H           3.8986    8.6100   17.4509 H       1  UNL1        0.0000
     30 H           6.1160    9.6690   17.2283 H       1  UNL1        0.0000
     31 H           8.1132    8.2838   16.8833 H       1  UNL1        0.0000
     32 H          10.5064    3.1885   17.2459 H       1  UNL1        0.0000
     33 H          10.9746    1.7828   19.2008 H       1  UNL1        0.0000
     34 H           9.6092    2.0139   21.2494 H       1  UNL1        0.0000
     35 H           7.7778    3.6659   21.3196 H       1  UNL1        0.0000
     36 H           7.3189    5.0799   19.3624 H       1  UNL1        0.0000
@<TRIPOS>BOND
     1    23     5    1
     2    22     4    1
     3     5     4    1
     4     5     6    2
     5     4     3    1
     6    21     2    1
     7     2     1    1
     8    24     6    1
     9     6     7    1
    10     3     1    1
    11     3     8    1
    12     1     9    1
    13     1    15    1
    14    31    14    1
    15     9    14   ar
    16     9    10   ar
    17    14    13   ar
    18    27    10    1
    19    10    11   ar
    20     7     8    1
    21     7    25    1
    22    13    30    1
    23    13    12   ar
    24    11    12   ar
    25    11    28    1
    26    32    16    1
    27    12    29    1
    28     8    26    1
    29    16    15   ar
    30    16    17   ar
    31    15    20   ar
    32    33    17    1
    33    17    18   ar
    34    20    36    1
    35    20    19   ar
    36    18    19   ar
    37    18    34    1
    38    19    35    1
