@<TRIPOS>MOLECULE
2,3,4,5,6,7
 57 58 0 0 0
SMALL
GASTEIGER

@<TRIPOS>ATOM
      1 C           7.5146    1.9328   13.6785 C.ar    1  UNL1        0.0000
      2 C           7.6099    2.4020   15.0053 C.ar    1  UNL1        0.0000
      3 C           8.6663    3.3718   14.9746 C.ar    1  UNL1        0.0000
      4 C           9.0441    4.0999   16.1375 C.2     1  UNL1        0.0000
      5 C           8.3973    3.7621   17.3225 C.2     1  UNL1        0.0000
      6 C           7.3597    2.7953   17.3678 C.3     1  UNL1        0.0000
      7 C           6.9238    2.1439   16.2202 C.3     1  UNL1        0.0000
      8 C          10.1877    5.0664   16.0844 C.3     1  UNL1        0.0000
      9 SI          6.3037    0.6014   13.1202 Si      1  UNL1        0.0000
     10 C           6.7801   -0.9791   14.0897 C.3     1  UNL1        0.0000
     11 C           4.5435    1.1786   13.5648 C.3     1  UNL1        0.0000
     12 C           6.3243    0.1382   11.2694 C.3     1  UNL1        0.0000
     13 N           9.1599    3.4564   13.7333 N.ar    1  UNL1        0.0000
     14 N           8.4523    2.6140   12.9985 N.ar    1  UNL1        0.0000
     15 C           8.7024    2.6158   11.5973 C.3     1  UNL1        0.0000
     16 SI         10.5557    2.1538   11.3148 Si      1  UNL1        0.0000
     17 C          11.7509    3.5760   11.7122 C.3     1  UNL1        0.0000
     18 C          10.8838    0.6717   12.4758 C.3     1  UNL1        0.0000
     19 C          10.7439    1.5916    9.5034 C.3     1  UNL1        0.0000
     20 SI          7.9944    4.3029   10.9355 Si      1  UNL1        0.0000
     21 C           8.9924    5.7914   11.5642 C.3     1  UNL1        0.0000
     22 C           8.0026    4.2132    9.0309 C.3     1  UNL1        0.0000
     23 C           6.2129    4.3883   11.6039 C.3     1  UNL1        0.0000
     24 H           8.7229    4.2179   18.2514 H       1  UNL1        0.0000
     25 H           6.9284    2.5402   18.3293 H       1  UNL1        0.0000
     26 H           6.1720    1.3666   16.2755 H       1  UNL1        0.0000
     27 H          10.1267    5.6668   15.1789 H       1  UNL1        0.0000
     28 H          11.1367    4.5266   16.0625 H       1  UNL1        0.0000
     29 H          10.1804    5.7253   16.9501 H       1  UNL1        0.0000
     30 H           7.7576   -1.3499   13.7930 H       1  UNL1        0.0000
     31 H           6.0632   -1.7751   13.9122 H       1  UNL1        0.0000
     32 H           6.8139   -0.8052   15.1609 H       1  UNL1        0.0000
     33 H           4.3171    2.1492   13.1336 H       1  UNL1        0.0000
     34 H           4.4031    1.2733   14.6368 H       1  UNL1        0.0000
     35 H           3.7993    0.4761   13.2008 H       1  UNL1        0.0000
     36 H           6.0614    0.9715   10.6257 H       1  UNL1        0.0000
     37 H           5.5888   -0.6424   11.0979 H       1  UNL1        0.0000
     38 H           7.2841   -0.2532   10.9454 H       1  UNL1        0.0000
     39 H           8.1025    1.8220   11.1603 H       1  UNL1        0.0000
     40 H          11.5115    4.0197   12.6719 H       1  UNL1        0.0000
     41 H          11.7023    4.3574   10.9616 H       1  UNL1        0.0000
     42 H          12.7766    3.2210   11.7516 H       1  UNL1        0.0000
     43 H          10.8099    0.9708   13.5169 H       1  UNL1        0.0000
     44 H          11.8769    0.2597   12.3262 H       1  UNL1        0.0000
     45 H          10.1689   -0.1303   12.3137 H       1  UNL1        0.0000
     46 H          10.0432    0.8029    9.2491 H       1  UNL1        0.0000
     47 H          11.7434    1.2106    9.3216 H       1  UNL1        0.0000
     48 H          10.5775    2.4111    8.8134 H       1  UNL1        0.0000
     49 H           9.8201    6.0427   10.9092 H       1  UNL1        0.0000
     50 H           9.3923    5.5875   12.5513 H       1  UNL1        0.0000
     51 H           8.3558    6.6669   11.6460 H       1  UNL1        0.0000
     52 H           9.0089    4.2831    8.6325 H       1  UNL1        0.0000
     53 H           7.4309    5.0347    8.6130 H       1  UNL1        0.0000
     54 H           7.5661    3.2905    8.6634 H       1  UNL1        0.0000
     55 H           6.2088    4.5105   12.6862 H       1  UNL1        0.0000
     56 H           5.6396    3.4960   11.3693 H       1  UNL1        0.0000
     57 H           5.6787    5.2362   11.1869 H       1  UNL1        0.0000
@<TRIPOS>BOND
     1    53    22    1
     2    52    22    1
     3    54    22    1
     4    48    19    1
     5    22    20    1
     6    46    19    1
     7    47    19    1
     8    19    16    1
     9    36    12    1
    10    49    21    1
    11    20    21    1
    12    20    15    1
    13    20    23    1
    14    38    12    1
    15    41    17    1
    16    37    12    1
    17    39    15    1
    18    57    23    1
    19    12     9    1
    20    16    15    1
    21    16    17    1
    22    16    18    1
    23    56    23    1
    24    21    51    1
    25    21    50    1
    26    15    14    1
    27    23    55    1
    28    17    42    1
    29    17    40    1
    30    45    18    1
    31    44    18    1
    32    18    43    1
    33    14     1   ar
    34    14    13   ar
    35     9    11    1
    36     9     1    1
    37     9    10    1
    38    33    11    1
    39    35    11    1
    40    11    34    1
    41     1     2   ar
    42    13     3   ar
    43    30    10    1
    44    31    10    1
    45    10    32    1
    46     3     2   ar
    47     3     4    1
    48     2     7    1
    49    27     8    1
    50    28     8    1
    51     8     4    1
    52     8    29    1
    53     4     5    2
    54     7    26    1
    55     7     6    1
    56     5     6    1
    57     5    24    1
    58     6    25    1
