@<TRIPOS>MOLECULE
2,3,4,5,6,23
 33 33 0 0 0
SMALL
GASTEIGER

@<TRIPOS>ATOM
      1 SI         11.7186    2.3348    0.8177 Si      1  UNL1        0.0000
      2 C          10.7061    4.5238    2.4394 C.2     1  UNL1        0.0000
      3 C           9.6108    4.7740    3.2981 C.2     1  UNL1        0.0000
      4 C           8.5733    3.8505    2.9640 C.2     1  UNL1        0.0000
      5 C           9.0514    3.0228    1.9208 C.2     1  UNL1        0.0000
      6 C          10.3679    3.4431    1.5691 C.3     1  UNL1        0.0000
      7 C          11.9838    5.3138    2.3435 C.3     1  UNL1        0.0000
      8 H          11.9635    6.1804    3.0019 H       1  UNL1        0.0000
      9 H          12.1171    5.6755    1.3240 H       1  UNL1        0.0000
     10 H          12.8539    4.7035    2.6018 H       1  UNL1        0.0000
     11 C           9.4337    5.9357    4.2400 C.3     1  UNL1        0.0000
     12 H           8.7003    6.6404    3.8404 H       1  UNL1        0.0000
     13 H          10.3679    6.4747    4.3841 H       1  UNL1        0.0000
     14 H           9.0807    5.6096    5.2209 H       1  UNL1        0.0000
     15 C           7.1334    4.0294    3.3687 C.3     1  UNL1        0.0000
     16 H           7.0488    4.5359    4.3277 H       1  UNL1        0.0000
     17 H           6.5973    3.0843    3.4316 H       1  UNL1        0.0000
     18 H           6.6211    4.6474    2.6254 H       1  UNL1        0.0000
     19 C           8.2402    2.0256    1.1383 C.3     1  UNL1        0.0000
     20 H           7.1977    2.0400    1.4492 H       1  UNL1        0.0000
     21 H           8.6228    1.0087    1.2480 H       1  UNL1        0.0000
     22 H           8.2732    2.2746    0.0772 H       1  UNL1        0.0000
     23 C          12.3274    1.6465    2.4664 C.3     1  UNL1        0.0000
     24 H          13.2864    2.0925    2.7678 H       1  UNL1        0.0000
     25 H          12.4635    0.5598    2.4541 H       1  UNL1        0.0000
     26 C          12.9333    3.3253   -0.2934 C.3     1  UNL1        0.0000
     27 H          13.6289    3.9129    0.2947 H       1  UNL1        0.0000
     28 H          12.4096    4.0023   -0.9608 H       1  UNL1        0.0000
     29 H          13.5182    2.6477   -0.9065 H       1  UNL1        0.0000
     30 C          11.0376    0.9632   -0.3386 C.3     1  UNL1        0.0000
     31 H          11.8632    0.4774   -0.8470 H       1  UNL1        0.0000
     32 H          10.3755    1.3599   -1.0995 H       1  UNL1        0.0000
     33 H          10.5002    0.1960    0.2079 H       1  UNL1        0.0000
@<TRIPOS>BOND
     1    32    30    1
     2    28    26    1
     3    29    26    1
     4    31    30    1
     5    30    33    1
     6    30     1    1
     7    26    27    1
     8    26     1    1
     9    22    19    1
    10     1     6    1
    11     1    23    1
    12    19    21    1
    13    19    20    1
    14    19     5    1
    15     9     7    1
    16     6     5    1
    17     6     2    1
    18     5     4    2
    19     7     2    1
    20     7    10    1
    21     7     8    1
    22     2     3    2
    23    25    23    1
    24    23    24    1
    25    18    15    1
    26     4     3    1
    27     4    15    1
    28     3    11    1
    29    15    17    1
    30    15    16    1
    31    12    11    1
    32    11    13    1
    33    11    14    1
