@<TRIPOS>MOLECULE
2,3,4,5,6,23
 33 33 0 0 0
SMALL
GASTEIGER

@<TRIPOS>ATOM
      1 SI          5.2032    8.4582    2.9666 Si      1  UNL1        0.0000
      2 C           2.8750    8.4228    4.7920 C.2     1  UNL1        0.0000
      3 C           1.5992    7.7992    4.7967 C.2     1  UNL1        0.0000
      4 C           1.3099    7.4039    3.4563 C.2     1  UNL1        0.0000
      5 C           2.3828    7.8063    2.6381 C.2     1  UNL1        0.0000
      6 C           3.3658    8.4408    3.4472 C.3     1  UNL1        0.0000
      7 C           3.4888    9.2323    5.9055 C.3     1  UNL1        0.0000
      8 H           3.8230   10.1911    5.5113 H       1  UNL1        0.0000
      9 H           4.3557    8.7429    6.3543 H       1  UNL1        0.0000
     10 H           2.7606    9.4392    6.6887 H       1  UNL1        0.0000
     11 C           0.5413    7.8897    5.8679 C.3     1  UNL1        0.0000
     12 H           0.9426    8.2955    6.7929 H       1  UNL1        0.0000
     13 H           0.0845    6.9238    6.0847 H       1  UNL1        0.0000
     14 H          -0.2550    8.5597    5.5327 H       1  UNL1        0.0000
     15 C           0.0258    6.7772    2.9823 C.3     1  UNL1        0.0000
     16 H          -0.6053    6.4942    3.8236 H       1  UNL1        0.0000
     17 H           0.2250    5.8858    2.3817 H       1  UNL1        0.0000
     18 H          -0.5385    7.4785    2.3631 H       1  UNL1        0.0000
     19 C           2.4666    7.6310    1.1485 C.3     1  UNL1        0.0000
     20 H           1.5073    7.3092    0.7468 H       1  UNL1        0.0000
     21 H           3.2167    6.8805    0.8795 H       1  UNL1        0.0000
     22 H           2.7383    8.5725    0.6725 H       1  UNL1        0.0000
     23 C           5.5150    6.6254    3.2777 C.3     1  UNL1        0.0000
     24 H           6.4199    6.4247    3.8594 H       1  UNL1        0.0000
     25 H           5.5805    6.0522    2.3387 H       1  UNL1        0.0000
     26 C           6.2795    9.5783    4.0977 C.3     1  UNL1        0.0000
     27 H           6.3243    9.2201    5.1198 H       1  UNL1        0.0000
     28 H           5.9162   10.5994    4.1173 H       1  UNL1        0.0000
     29 H           7.2948    9.6042    3.7171 H       1  UNL1        0.0000
     30 C           5.5096    9.1525    1.2005 C.3     1  UNL1        0.0000
     31 H           6.5613    9.3850    1.0677 H       1  UNL1        0.0000
     32 H           4.9480   10.0634    1.0189 H       1  UNL1        0.0000
     33 H           5.2358    8.4345    0.4356 H       1  UNL1        0.0000
@<TRIPOS>BOND
     1    33    30    1
     2    22    19    1
     3    20    19    1
     4    21    19    1
     5    32    30    1
     6    31    30    1
     7    19     5    1
     8    30     1    1
     9    25    23    1
    10    18    15    1
    11    17    15    1
    12     5     6    1
    13     5     4    2
    14     1    23    1
    15     1     6    1
    16     1    26    1
    17    15     4    1
    18    15    16    1
    19    23    24    1
    20     6     2    1
    21     4     3    1
    22    29    26    1
    23    26    28    1
    24    26    27    1
    25     2     3    2
    26     2     7    1
    27     3    11    1
    28     8     7    1
    29    14    11    1
    30    11    13    1
    31    11    12    1
    32     7     9    1
    33     7    10    1
