@<TRIPOS>MOLECULE
2,3,4,5,23
 33 33 0 0 0
SMALL
GASTEIGER

@<TRIPOS>ATOM
      1 SI         11.4069    2.7643    6.7939 Si      1  UNL1        0.0000
      2 C          11.0139    0.4281    5.1099 C.2     1  UNL1        0.0000
      3 C          10.0728   -0.0357    4.1620 C.2     1  UNL1        0.0000
      4 C           8.8418    0.6504    4.3957 C.2     1  UNL1        0.0000
      5 C           9.0458    1.5500    5.4685 C.2     1  UNL1        0.0000
      6 C          10.3851    1.4080    5.9373 C.3     1  UNL1        0.0000
      7 C          12.4139   -0.0815    5.3243 C.3     1  UNL1        0.0000
      8 H          12.5268   -0.4259    6.3524 H       1  UNL1        0.0000
      9 H          13.1576    0.7004    5.1466 H       1  UNL1        0.0000
     10 H          12.6342   -0.9215    4.6680 H       1  UNL1        0.0000
     11 C          10.2217   -1.2006    3.2189 C.3     1  UNL1        0.0000
     12 H           9.6123   -2.0426    3.5563 H       1  UNL1        0.0000
     13 H          11.2547   -1.5383    3.1668 H       1  UNL1        0.0000
     14 H           9.9018   -0.9436    2.2066 H       1  UNL1        0.0000
     15 C           7.5110    0.1805    3.8690 C.3     1  UNL1        0.0000
     16 H           7.6162   -0.3193    2.9085 H       1  UNL1        0.0000
     17 H           6.7965    0.9937    3.7560 H       1  UNL1        0.0000
     18 H           7.0778   -0.5409    4.5681 H       1  UNL1        0.0000
     19 C           7.9810    2.3501    6.1692 C.3     1  UNL1        0.0000
     20 H           6.9949    2.1229    5.7695 H       1  UNL1        0.0000
     21 H           8.1525    3.4252    6.0841 H       1  UNL1        0.0000
     22 H           7.9732    2.1033    7.2313 H       1  UNL1        0.0000
     23 C          12.0061    3.5759    5.1987 C.3     1  UNL1        0.0000
     24 H          13.0588    3.3371    4.9876 H       1  UNL1        0.0000
     25 H          11.9166    4.6674    5.2120 H       1  UNL1        0.0000
     26 C          12.6938    2.0351    8.0201 C.3     1  UNL1        0.0000
     27 H          13.5448    1.6066    7.5033 H       1  UNL1        0.0000
     28 H          12.2616    1.2602    8.6454 H       1  UNL1        0.0000
     29 H          13.0701    2.8133    8.6757 H       1  UNL1        0.0000
     30 C          10.3582    3.9580    7.8697 C.3     1  UNL1        0.0000
     31 H          11.0176    4.5995    8.4440 H       1  UNL1        0.0000
     32 H           9.7266    3.4279    8.5731 H       1  UNL1        0.0000
     33 H           9.7256    4.6023    7.2690 H       1  UNL1        0.0000
@<TRIPOS>BOND
     1    14    11    1
     2    16    15    1
     3    13    11    1
     4    11    12    1
     5    11     3    1
     6    17    15    1
     7    15     4    1
     8    15    18    1
     9     3     4    1
    10     3     2    2
    11     4     5    2
    12    10     7    1
    13    24    23    1
    14     2     7    1
    15     2     6    1
    16     9     7    1
    17    23    25    1
    18    23     1    1
    19     7     8    1
    20     5     6    1
    21     5    19    1
    22    20    19    1
    23     6     1    1
    24    21    19    1
    25    19    22    1
    26     1    30    1
    27     1    26    1
    28    33    30    1
    29    27    26    1
    30    30    31    1
    31    30    32    1
    32    26    28    1
    33    26    29    1
