@<TRIPOS>MOLECULE
5,7,9,11,13,14
 47 48 0 0 0
SMALL
GASTEIGER

@<TRIPOS>ATOM
      1 SI          7.3574    4.2459   14.6234 Si      1  UNL1        0.0000
      2 O           4.5085    2.6659   10.5420 O.2     1  UNL1        0.0000
      3 O           7.3568    3.0605   13.4809 O.3     1  UNL1        0.0000
      4 O           4.4837    2.0774   14.6392 O.2     1  UNL1        0.0000
      5 C           8.1284    2.8518   10.8844 C.3     1  UNL1        0.0000
      6 H           8.8444    2.7740   11.6932 H       1  UNL1        0.0000
      7 C           8.5602    2.9141    9.5503 C.3     1  UNL1        0.0000
      8 H           9.6159    2.8834    9.3139 H       1  UNL1        0.0000
      9 C           7.6059    2.9790    8.5328 C.3     1  UNL1        0.0000
     10 H           7.9182    2.9861    7.4948 H       1  UNL1        0.0000
     11 C           6.2318    2.9056    8.8269 C.2     1  UNL1        0.0000
     12 H           5.5162    2.8642    8.0167 H       1  UNL1        0.0000
     13 C           5.8063    2.8089   10.1609 C.2     1  UNL1        0.0000
     14 C           6.7680    2.7841   11.2024 C.3     1  UNL1        0.0000
     15 C           6.3213    2.6532   12.6389 C.3     1  UNL1        0.0000
     16 H           5.4277    3.2716   12.7911 H       1  UNL1        0.0000
     17 C           5.9445    1.1981   12.9692 C.3     1  UNL1        0.0000
     18 H           6.8543    0.6025   13.0487 H       1  UNL1        0.0000
     19 H           5.3118    0.8004   12.1720 H       1  UNL1        0.0000
     20 C           5.1524    1.1421   14.2624 C.2     1  UNL1        0.0000
     21 C           5.2409   -0.1126   15.0485 C.ar    1  UNL1        0.0000
     22 C           5.5873   -1.3401   14.4866 C.ar    1  UNL1        0.0000
     23 H           5.7911   -1.4198   13.4295 H       1  UNL1        0.0000
     24 C           5.6410   -2.4738   15.2762 C.ar    1  UNL1        0.0000
     25 H           5.9015   -3.4240   14.8335 H       1  UNL1        0.0000
     26 C           5.3632   -2.3966   16.6320 C.ar    1  UNL1        0.0000
     27 H           5.4147   -3.2848   17.2441 H       1  UNL1        0.0000
     28 C           5.0136   -1.1814   17.1984 C.ar    1  UNL1        0.0000
     29 H           4.7913   -1.1194   18.2531 H       1  UNL1        0.0000
     30 C           4.9441   -0.0494   16.4101 C.ar    1  UNL1        0.0000
     31 H           4.6678    0.9049   16.8323 H       1  UNL1        0.0000
     32 C           9.1828    4.7748   14.6194 C.3     1  UNL1        0.0000
     33 H           9.4275    5.3401   13.7261 H       1  UNL1        0.0000
     34 H           9.8496    3.9195   14.6667 H       1  UNL1        0.0000
     35 H           9.3972    5.4051   15.4748 H       1  UNL1        0.0000
     36 C           6.1864    5.6622   14.1371 C.3     1  UNL1        0.0000
     37 H           5.1477    5.3464   14.1849 H       1  UNL1        0.0000
     38 H           6.3853    5.9996   13.1220 H       1  UNL1        0.0000
     39 H           6.2927    6.5184   14.7944 H       1  UNL1        0.0000
     40 C           6.8570    3.5274   16.3194 C.3     1  UNL1        0.0000
     41 H           5.7971    3.2925   16.3447 H       1  UNL1        0.0000
     42 H           7.0568    4.2321   17.1199 H       1  UNL1        0.0000
     43 H           7.4026    2.6137   16.5415 H       1  UNL1        0.0000
     44 C           3.4956    3.0818    9.6477 C.3     1  UNL1        0.0000
     45 H           2.5766    3.0817   10.2307 H       1  UNL1        0.0000
     46 H           3.3876    2.3880    8.8078 H       1  UNL1        0.0000
     47 H           3.6932    4.0915    9.2753 H       1  UNL1        0.0000
@<TRIPOS>BOND
     1    10     9    1
     2    12    11    1
     3     9    11    1
     4     9     7    1
     5    46    44    1
     6    11    13    2
     7    47    44    1
     8     8     7    1
     9     7     5    1
    10    44    45    1
    11    44     2    1
    12    13     2    1
    13    13    14    1
    14     5    14    1
    15     5     6    1
    16    14    15    1
    17    19    17    1
    18    15    16    1
    19    15    17    1
    20    15     3    1
    21    17    18    1
    22    17    20    1
    23    38    36    1
    24    23    22    1
    25     3     1    1
    26    33    32    1
    27    36    37    1
    28    36     1    1
    29    36    39    1
    30    20     4    2
    31    20    21    1
    32    22    21   ar
    33    22    24   ar
    34    32     1    1
    35    32    34    1
    36    32    35    1
    37     1    40    1
    38    25    24    1
    39    21    30   ar
    40    24    26   ar
    41    40    41    1
    42    40    43    1
    43    40    42    1
    44    30    31    1
    45    30    28   ar
    46    26    28   ar
    47    26    27    1
    48    28    29    1
