@<TRIPOS>MOLECULE
2,4,6,8,10,11
 40 41 0 0 0
SMALL
GASTEIGER

@<TRIPOS>ATOM
      1 SI         -1.5873    7.2643   11.4632 Si      1  UNL1        0.0000
      2 C           0.7066    2.9308    9.1800 C.3     1  UNL1        0.0000
      3 H           0.4918    2.1841    8.4173 H       1  UNL1        0.0000
      4 C           1.9630    3.6238    9.0779 C.2     1  UNL1        0.0000
      5 H           2.7048    3.2754    8.3623 H       1  UNL1        0.0000
      6 C           2.2491    4.7309    9.8637 C.2     1  UNL1        0.0000
      7 H           3.2166    5.2168    9.7628 H       1  UNL1        0.0000
      8 C           1.2762    5.2755   10.7692 C.3     1  UNL1        0.0000
      9 H           1.4828    6.2450   11.2212 H       1  UNL1        0.0000
     10 C          -0.1089    4.9218   10.4850 C.2     1  UNL1        0.0000
     11 C          -0.4011    3.7060    9.7531 C.2     1  UNL1        0.0000
     12 C          -1.8139    3.5654    9.7089 C.2     1  UNL1        0.0000
     13 C          -2.3527    4.6775   10.3499 C.2     1  UNL1        0.0000
     14 H          -3.4013    4.8884   10.4611 H       1  UNL1        0.0000
     15 C          -1.3339    5.5235   10.8506 C.3     1  UNL1        0.0000
     16 C          -2.5626    2.4389    9.0312 C.3     1  UNL1        0.0000
     17 C          -2.0807    1.0714    9.5710 C.3     1  UNL1        0.0000
     18 H          -2.7315    0.7277   10.3739 H       1  UNL1        0.0000
     19 H          -1.0616    1.1353    9.9677 H       1  UNL1        0.0000
     20 H          -2.1033    0.3192    8.7849 H       1  UNL1        0.0000
     21 C          -4.0720    2.5523    9.2735 C.3     1  UNL1        0.0000
     22 H          -4.4609    3.4667    8.8334 H       1  UNL1        0.0000
     23 H          -4.3011    2.5573   10.3378 H       1  UNL1        0.0000
     24 H          -4.5852    1.7078    8.8165 H       1  UNL1        0.0000
     25 C          -2.3296    2.5189    7.5138 C.3     1  UNL1        0.0000
     26 H          -2.9114    1.7575    6.9958 H       1  UNL1        0.0000
     27 H          -1.2817    2.3810    7.2659 H       1  UNL1        0.0000
     28 H          -2.6338    3.4964    7.1467 H       1  UNL1        0.0000
     29 C          -3.4491    7.5988   11.7292 C.3     1  UNL1        0.0000
     30 H          -4.0051    7.4577   10.8089 H       1  UNL1        0.0000
     31 H          -3.6137    8.6203   12.0570 H       1  UNL1        0.0000
     32 H          -3.8812    6.9430   12.4789 H       1  UNL1        0.0000
     33 C          -0.9198    8.5302   10.1915 C.3     1  UNL1        0.0000
     34 H           0.1407    8.3819   10.0119 H       1  UNL1        0.0000
     35 H          -1.0579    9.5542   10.5270 H       1  UNL1        0.0000
     36 H          -1.4252    8.4237    9.2365 H       1  UNL1        0.0000
     37 C          -0.7378    7.7026   13.1333 C.3     1  UNL1        0.0000
     38 H          -1.1867    7.1923   13.9809 H       1  UNL1        0.0000
     39 H          -0.8294    8.7690   13.3182 H       1  UNL1        0.0000
     40 H           0.3237    7.4742   13.1301 H       1  UNL1        0.0000
@<TRIPOS>BOND
     1    26    25    1
     2    28    25    1
     3    27    25    1
     4    25    16    1
     5     5     4    1
     6     3     2    1
     7    20    17    1
     8    24    21    1
     9    22    21    1
    10    16    21    1
    11    16    17    1
    12    16    12    1
    13     4     2    1
    14     4     6    2
    15     2    11    1
    16    36    33    1
    17    21    23    1
    18    17    19    1
    19    17    18    1
    20    12    11    1
    21    12    13    2
    22    11    10    2
    23     7     6    1
    24     6     8    1
    25    34    33    1
    26    33    35    1
    27    33     1    1
    28    13    14    1
    29    13    15    1
    30    10     8    1
    31    10    15    1
    32     8     9    1
    33    30    29    1
    34    15     1    1
    35     1    29    1
    36     1    37    1
    37    29    31    1
    38    29    32    1
    39    40    37    1
    40    37    39    1
    41    37    38    1
