@<TRIPOS>MOLECULE
3,5,7,9,11,12
 54 57 0 0 0
SMALL
GASTEIGER

@<TRIPOS>ATOM
      1 SI         -4.1587   -2.3263   -2.6908 Si      1  UNL1        0.0000
      2 SI         -6.0279    2.3977   -5.3661 Si      1  UNL1        0.0000
      3 C          -1.7402   -0.9560   -4.9827 C.3     1  UNL1        0.0000
      4 H          -1.4935   -1.9427   -4.6066 H       1  UNL1        0.0000
      5 C          -1.1891   -0.5501   -6.2428 C.2     1  UNL1        0.0000
      6 H          -0.4263   -1.1690   -6.7079 H       1  UNL1        0.0000
      7 C          -1.6130    0.6108   -6.8734 C.2     1  UNL1        0.0000
      8 H          -1.1754    0.8839   -7.8296 H       1  UNL1        0.0000
      9 C          -2.6292    1.4513   -6.3026 C.3     1  UNL1        0.0000
     10 H          -3.0378    2.2486   -6.9166 H       1  UNL1        0.0000
     11 C          -3.4873    0.8169   -5.3094 C.2     1  UNL1        0.0000
     12 C          -3.0290   -0.3747   -4.6366 C.3     1  UNL1        0.0000
     13 C          -4.0233   -0.7648   -3.6992 C.2     1  UNL1        0.0000
     14 C          -5.0628    0.1705   -3.8257 C.2     1  UNL1        0.0000
     15 H          -5.9814    0.1210   -3.2664 H       1  UNL1        0.0000
     16 C          -4.7665    1.1509   -4.7878 C.2     1  UNL1        0.0000
     17 C          -3.1455   -3.8032   -3.3658 C.3     1  UNL1        0.0000
     18 H          -3.5342   -4.7395   -2.9754 H       1  UNL1        0.0000
     19 H          -3.1952   -3.8547   -4.4487 H       1  UNL1        0.0000
     20 H          -2.1002   -3.7427   -3.0799 H       1  UNL1        0.0000
     21 C          -3.6440   -2.0757   -0.8561 C.3     1  UNL1        0.0000
     22 H          -3.7262   -3.0071   -0.3047 H       1  UNL1        0.0000
     23 H          -4.2788   -1.3452   -0.3625 H       1  UNL1        0.0000
     24 H          -2.6161   -1.7392   -0.7592 H       1  UNL1        0.0000
     25 C          -5.9894   -2.8385   -2.7279 C.ar    1  UNL1        0.0000
     26 C          -6.6438   -3.3485   -1.6128 C.ar    1  UNL1        0.0000
     27 H          -6.1042   -3.4556   -0.6828 H       1  UNL1        0.0000
     28 C          -7.9759   -3.7194   -1.6661 C.ar    1  UNL1        0.0000
     29 H          -8.4638   -4.1131   -0.7847 H       1  UNL1        0.0000
     30 C          -8.6853   -3.5852   -2.8470 C.ar    1  UNL1        0.0000
     31 H          -9.7265   -3.8722   -2.8916 H       1  UNL1        0.0000
     32 C          -8.0516   -3.0792   -3.9697 C.ar    1  UNL1        0.0000
     33 H          -8.5994   -2.9698   -4.8955 H       1  UNL1        0.0000
     34 C          -6.7200   -2.7131   -3.9060 C.ar    1  UNL1        0.0000
     35 H          -6.2343   -2.3108   -4.7832 H       1  UNL1        0.0000
     36 C          -7.6286    1.5194   -5.9295 C.3     1  UNL1        0.0000
     37 H          -7.4745    0.9838   -6.8614 H       1  UNL1        0.0000
     38 H          -8.4434    2.2221   -6.0790 H       1  UNL1        0.0000
     39 H          -7.9494    0.7930   -5.1898 H       1  UNL1        0.0000
     40 C          -5.4608    3.5263   -6.7977 C.3     1  UNL1        0.0000
     41 H          -4.5848    4.1160   -6.5482 H       1  UNL1        0.0000
     42 H          -6.2542    4.2158   -7.0698 H       1  UNL1        0.0000
     43 H          -5.2279    2.9384   -7.6794 H       1  UNL1        0.0000
     44 C          -6.5171    3.5342   -3.9047 C.ar    1  UNL1        0.0000
     45 C          -6.1994    4.8889   -3.8629 C.ar    1  UNL1        0.0000
     46 H          -5.6535    5.3314   -4.6832 H       1  UNL1        0.0000
     47 C          -6.5759    5.6884   -2.7974 C.ar    1  UNL1        0.0000
     48 H          -6.3228    6.7396   -2.7943 H       1  UNL1        0.0000
     49 C          -7.2804    5.1437   -1.7370 C.ar    1  UNL1        0.0000
     50 H          -7.5788    5.7650   -0.9046 H       1  UNL1        0.0000
     51 C          -7.6045    3.7973   -1.7554 C.ar    1  UNL1        0.0000
     52 H          -8.1584    3.3644   -0.9342 H       1  UNL1        0.0000
     53 C          -7.2266    3.0099   -2.8279 C.ar    1  UNL1        0.0000
     54 H          -7.4965    1.9643   -2.8364 H       1  UNL1        0.0000
@<TRIPOS>BOND
     1     8     7    1
     2    43    40    1
     3    42    40    1
     4    10     9    1
     5     7     9    1
     6     7     5    2
     7    37    36    1
     8    40    41    1
     9    40     2    1
    10     6     5    1
    11     9    11    1
    12     5     3    1
    13    38    36    1
    14    36     2    1
    15    36    39    1
    16     2    16    1
    17     2    44    1
    18    11    16    2
    19    11    12    1
    20     3    12    1
    21     3     4    1
    22    33    32    1
    23    16    14    1
    24    35    34    1
    25    46    45    1
    26    12    13    1
    27    19    17    1
    28    32    34   ar
    29    32    30   ar
    30    34    25   ar
    31    44    45   ar
    32    44    53   ar
    33    45    47   ar
    34    14    13    2
    35    14    15    1
    36    13     1    1
    37    17    20    1
    38    17    18    1
    39    17     1    1
    40    31    30    1
    41    30    28   ar
    42    54    53    1
    43    53    51   ar
    44    47    48    1
    45    47    49   ar
    46    25     1    1
    47    25    26   ar
    48     1    21    1
    49    51    49   ar
    50    51    52    1
    51    49    50    1
    52    28    26   ar
    53    28    29    1
    54    26    27    1
    55    21    24    1
    56    21    23    1
    57    21    22    1
