@<TRIPOS>MOLECULE
5,6,7,8,9,10
 35 36 0 0 0
SMALL
GASTEIGER

@<TRIPOS>ATOM
      1 SI          3.0690    3.3282    6.2381 Si      1  UNL1        0.0000
      2 C           3.8126    5.1311    6.1431 C.3     1  UNL1        0.0000
      3 C           5.2502    4.9666    5.7815 C.2     1  UNL1        0.0000
      4 C           6.0646    5.1720    6.8334 C.2     1  UNL1        0.0000
      5 C           5.2495    5.5682    7.9660 C.3     1  UNL1        0.0000
      6 C           5.5969    5.8368    9.3082 C.2     1  UNL1        0.0000
      7 C           4.5806    6.1527   10.2072 C.2     1  UNL1        0.0000
      8 C           3.2355    6.2372    9.7825 C.3     1  UNL1        0.0000
      9 C           3.9000    5.6191    7.5470 C.2     1  UNL1        0.0000
     10 C           2.8897    5.9803    8.4525 C.2     1  UNL1        0.0000
     11 C           1.1847    3.4016    6.5259 C.3     1  UNL1        0.0000
     12 C           3.4289    2.4310    4.5970 C.3     1  UNL1        0.0000
     13 C           3.9126    2.4306    7.6940 C.3     1  UNL1        0.0000
     14 C           3.0337    6.0303    5.1915 C.3     1  UNL1        0.0000
     15 C           7.5510    5.0766    6.8810 C.3     1  UNL1        0.0000
     16 H           5.5605    4.7095    4.7851 H       1  UNL1        0.0000
     17 H           6.6182    5.7156    9.6492 H       1  UNL1        0.0000
     18 H           4.8107    6.2839   11.2585 H       1  UNL1        0.0000
     19 H           2.4609    6.4333   10.5150 H       1  UNL1        0.0000
     20 H           1.8496    5.9807    8.1490 H       1  UNL1        0.0000
     21 H           0.6793    3.9855    5.7631 H       1  UNL1        0.0000
     22 H           0.9294    3.8231    7.4930 H       1  UNL1        0.0000
     23 H           0.7697    2.3992    6.4928 H       1  UNL1        0.0000
     24 H           3.0596    2.9877    3.7415 H       1  UNL1        0.0000
     25 H           2.9454    1.4596    4.5851 H       1  UNL1        0.0000
     26 H           4.4922    2.2685    4.4523 H       1  UNL1        0.0000
     27 H           4.9947    2.4747    7.6135 H       1  UNL1        0.0000
     28 H           3.6288    1.3835    7.7179 H       1  UNL1        0.0000
     29 H           3.6359    2.8650    8.6508 H       1  UNL1        0.0000
     30 H           2.0005    6.1361    5.5118 H       1  UNL1        0.0000
     31 H           3.0439    5.6200    4.1848 H       1  UNL1        0.0000
     32 H           3.4869    7.0211    5.1684 H       1  UNL1        0.0000
     33 H           7.9775    6.0477    7.1334 H       1  UNL1        0.0000
     34 H           7.9434    4.7632    5.9171 H       1  UNL1        0.0000
     35 H           7.8697    4.3601    7.6390 H       1  UNL1        0.0000
@<TRIPOS>BOND
     1    24    12    1
     2    31    14    1
     3    26    12    1
     4    25    12    1
     5    12     1    1
     6    16     3    1
     7    32    14    1
     8    14    30    1
     9    14     2    1
    10    21    11    1
    11     3     2    1
    12     3     4    2
    13    34    15    1
    14     2     1    1
    15     2     9    1
    16     1    11    1
    17     1    13    1
    18    23    11    1
    19    11    22    1
    20     4    15    1
    21     4     5    1
    22    15    33    1
    23    15    35    1
    24     9     5    1
    25     9    10    2
    26    27    13    1
    27    13    28    1
    28    13    29    1
    29     5     6    1
    30    20    10    1
    31    10     8    1
    32     6    17    1
    33     6     7    2
    34     8     7    1
    35     8    19    1
    36     7    18    1
