@<TRIPOS>MOLECULE
10,11,13,15,17,19
 39 40 0 0 0
SMALL
GASTEIGER

@<TRIPOS>ATOM
      1 SI          3.0793    8.1838    9.8857 Si      1  UNL1        0.0000
      2 O           3.3732    6.6611   10.4120 O.3     1  UNL1        0.0000
      3 O           3.7476    2.9058   12.9932 O.3     1  UNL1        0.0000
      4 H           3.9614    3.2657   13.8594 H       1  UNL1        0.0000
      5 C           2.5277    5.7059   10.9697 C.3     1  UNL1        0.0000
      6 H           1.5021    6.1028   11.0404 H       1  UNL1        0.0000
      7 C           2.9953    5.2319   12.3873 C.3     1  UNL1        0.0000
      8 C           2.7500    3.6871   12.3886 C.3     1  UNL1        0.0000
      9 H           1.7751    3.4780   12.8728 H       1  UNL1        0.0000
     10 C           2.6800    3.3233   10.9336 C.2     1  UNL1        0.0000
     11 C           2.7351    2.0391   10.3656 C.2     1  UNL1        0.0000
     12 H           2.7990    1.1658   11.0014 H       1  UNL1        0.0000
     13 C           2.6361    1.9269    8.9787 C.2     1  UNL1        0.0000
     14 H           2.6158    0.9476    8.5159 H       1  UNL1        0.0000
     15 C           2.4815    3.0756    8.1706 C.2     1  UNL1        0.0000
     16 H           2.3417    2.9564    7.1027 H       1  UNL1        0.0000
     17 C           2.4314    4.3482    8.7409 C.3     1  UNL1        0.0000
     18 H           2.2610    5.2298    8.1371 H       1  UNL1        0.0000
     19 C           2.5386    4.4550   10.1385 C.3     1  UNL1        0.0000
     20 C           2.0338    8.1673    8.2842 C.3     1  UNL1        0.0000
     21 H           2.5699    7.6785    7.4749 H       1  UNL1        0.0000
     22 H           1.8013    9.1740    7.9518 H       1  UNL1        0.0000
     23 H           1.0877    7.6470    8.4188 H       1  UNL1        0.0000
     24 C           4.8297    8.8424    9.5972 C.3     1  UNL1        0.0000
     25 H           5.4649    8.0733    9.1714 H       1  UNL1        0.0000
     26 H           5.2924    9.1731   10.5213 H       1  UNL1        0.0000
     27 H           4.8182    9.6868    8.9170 H       1  UNL1        0.0000
     28 C           2.1210    9.1935   11.1982 C.3     1  UNL1        0.0000
     29 H           2.6776    9.2608   12.1292 H       1  UNL1        0.0000
     30 H           1.1551    8.7488   11.4263 H       1  UNL1        0.0000
     31 H           1.9354   10.2078   10.8605 H       1  UNL1        0.0000
     32 C           2.1835    5.9236   13.4821 C.3     1  UNL1        0.0000
     33 H           2.4863    5.5718   14.4669 H       1  UNL1        0.0000
     34 H           1.1183    5.7294   13.3623 H       1  UNL1        0.0000
     35 H           2.3448    6.9977   13.4393 H       1  UNL1        0.0000
     36 C           4.4807    5.5385   12.5767 C.3     1  UNL1        0.0000
     37 H           4.7952    5.3110   13.5929 H       1  UNL1        0.0000
     38 H           4.6621    6.5922   12.3893 H       1  UNL1        0.0000
     39 H           5.0813    4.9584   11.8786 H       1  UNL1        0.0000
@<TRIPOS>BOND
     1    16    15    1
     2    21    20    1
     3    22    20    1
     4    18    17    1
     5    15    17    1
     6    15    13    2
     7    20    23    1
     8    20     1    1
     9    14    13    1
    10    17    19    1
    11    27    24    1
    12    13    11    1
    13    25    24    1
    14    24     1    1
    15    24    26    1
    16     1     2    1
    17     1    28    1
    18    19    10    1
    19    19     5    1
    20    11    10    2
    21    11    12    1
    22     2     5    1
    23    31    28    1
    24    10     8    1
    25     5     6    1
    26     5     7    1
    27    28    30    1
    28    28    29    1
    29    39    36    1
    30     7     8    1
    31     7    36    1
    32     7    32    1
    33     8     9    1
    34     8     3    1
    35    38    36    1
    36    36    37    1
    37     3     4    1
    38    34    32    1
    39    35    32    1
    40    32    33    1
