@<TRIPOS>MOLECULE
2,3,5,6,7,25
 27 27 0 0 0
SMALL
GASTEIGER

@<TRIPOS>ATOM
      1 SI         -1.9863    2.6667    1.1346 Si      1  UNL1        0.0000
      2 C          -1.3241    4.4425    1.2864 C.2     1  UNL1        0.0000
      3 C          -0.4999    5.0700    0.3126 C.2     1  UNL1        0.0000
      4 H          -0.6103    4.9539   -0.7593 H       1  UNL1        0.0000
      5 C           0.3763    5.9873    0.9431 C.2     1  UNL1        0.0000
      6 C           0.1089    5.9193    2.3522 C.2     1  UNL1        0.0000
      7 C          -0.9066    4.9361    2.5551 C.3     1  UNL1        0.0000
      8 H          -1.4331    4.7678    3.4861 H       1  UNL1        0.0000
      9 C           1.2367    7.0004    0.2502 C.3     1  UNL1        0.0000
     10 H           0.7076    7.9530    0.1676 H       1  UNL1        0.0000
     11 H           1.4855    6.6594   -0.7527 H       1  UNL1        0.0000
     12 H           2.1641    7.1771    0.7941 H       1  UNL1        0.0000
     13 C           0.4799    6.9732    3.3556 C.3     1  UNL1        0.0000
     14 H          -0.2941    7.7450    3.3579 H       1  UNL1        0.0000
     15 H           1.4234    7.4596    3.1115 H       1  UNL1        0.0000
     16 H           0.5401    6.5644    4.3642 H       1  UNL1        0.0000
     17 C          -3.6544    2.4818    2.0471 C.3     1  UNL1        0.0000
     18 H          -3.9893    1.4522    2.0027 H       1  UNL1        0.0000
     19 H          -4.4258    3.1000    1.6011 H       1  UNL1        0.0000
     20 H          -3.5724    2.7564    3.0927 H       1  UNL1        0.0000
     21 C          -2.2108    2.1977   -0.7005 C.3     1  UNL1        0.0000
     22 H          -2.6025    1.1907   -0.7889 H       1  UNL1        0.0000
     23 H          -1.2591    2.2341   -1.2192 H       1  UNL1        0.0000
     24 H          -2.9000    2.8666   -1.2057 H       1  UNL1        0.0000
     25 C          -0.4429    1.9818    1.9627 C.3     1  UNL1        0.0000
     26 H          -0.0526    1.0782    1.4954 H       1  UNL1        0.0000
     27 H          -0.6198    1.7783    3.0199 H       1  UNL1        0.0000
@<TRIPOS>BOND
     1    23    21    1
     2    24    21    1
     3    22    21    1
     4     4     3    1
     5    11     9    1
     6    21     1    1
     7    10     9    1
     8     9    12    1
     9     9     5    1
    10     3     5    1
    11     3     2    2
    12     5     6    2
    13     1     2    1
    14     1    25    1
    15     1    17    1
    16     2     7    1
    17    26    25    1
    18    19    17    1
    19    25    27    1
    20    18    17    1
    21    17    20    1
    22     6     7    1
    23     6    13    1
    24     7     8    1
    25    15    13    1
    26    13    14    1
    27    13    16    1
