@<TRIPOS>MOLECULE
3,5,7,8,9,11
 44 46 0 0 0
SMALL
GASTEIGER

@<TRIPOS>ATOM
      1 SI          1.6160    8.3277    1.5945 Si      1  UNL1        0.0000
      2 O           2.3163    8.5948    0.1346 O.3     1  UNL1        0.0000
      3 C           4.8221    6.5044    3.7463 C.3     1  UNL1        0.0000
      4 H           5.1139    6.1814    4.7389 H       1  UNL1        0.0000
      5 C           3.5143    6.9852    3.5245 C.2     1  UNL1        0.0000
      6 H           2.8117    7.0327    4.3484 H       1  UNL1        0.0000
      7 C           3.1617    7.4847    2.2730 C.2     1  UNL1        0.0000
      8 C           4.1197    7.4962    1.2323 C.3     1  UNL1        0.0000
      9 C           5.4126    7.0241    1.4436 C.2     1  UNL1        0.0000
     10 H           6.1744    7.1042    0.6761 H       1  UNL1        0.0000
     11 C           5.7650    6.5331    2.7203 C.2     1  UNL1        0.0000
     12 H           6.7896    6.2380    2.9142 H       1  UNL1        0.0000
     13 C           3.6161    8.0847   -0.0718 C.3     1  UNL1        0.0000
     14 C           3.6028    6.9746   -1.0916 C.2     1  UNL1        0.0000
     15 H           4.5552    6.4831   -1.2303 H       1  UNL1        0.0000
     16 C           2.5240    6.6046   -1.7738 C.2     1  UNL1        0.0000
     17 H           1.6077    7.1631   -1.6374 H       1  UNL1        0.0000
     18 C           2.4690    5.5044   -2.7254 C.ar    1  UNL1        0.0000
     19 C           1.4867    5.5080   -3.7156 C.ar    1  UNL1        0.0000
     20 H           0.7873    6.3309   -3.7636 H       1  UNL1        0.0000
     21 C           1.4072    4.4815   -4.6370 C.ar    1  UNL1        0.0000
     22 H           0.6439    4.5016   -5.4016 H       1  UNL1        0.0000
     23 C           2.2987    3.4234   -4.5751 C.ar    1  UNL1        0.0000
     24 H           2.2321    2.6157   -5.2891 H       1  UNL1        0.0000
     25 C           3.2671    3.3990   -3.5842 C.ar    1  UNL1        0.0000
     26 H           3.9528    2.5672   -3.5200 H       1  UNL1        0.0000
     27 C           3.3558    4.4293   -2.6683 C.ar    1  UNL1        0.0000
     28 H           4.0930    4.3831   -1.8810 H       1  UNL1        0.0000
     29 C           4.5154    9.2579   -0.5309 C.3     1  UNL1        0.0000
     30 H           4.5902    9.9782    0.2873 H       1  UNL1        0.0000
     31 H           5.5115    8.8706   -0.7582 H       1  UNL1        0.0000
     32 C           3.9394    9.9145   -1.7432 C.2     1  UNL1        0.0000
     33 H           3.8462    9.2731   -2.6090 H       1  UNL1        0.0000
     34 C           3.5372   11.1699   -1.7848 C.2     1  UNL1        0.0000
     35 H           3.6130   11.8195   -0.9280 H       1  UNL1        0.0000
     36 H           3.1188   11.6042   -2.6762 H       1  UNL1        0.0000
     37 C           0.0926    7.2057    1.4762 C.3     1  UNL1        0.0000
     38 H          -0.6663    7.6696    0.8543 H       1  UNL1        0.0000
     39 H          -0.3467    7.0374    2.4535 H       1  UNL1        0.0000
     40 H           0.3299    6.2375    1.0455 H       1  UNL1        0.0000
     41 C           1.2540    9.9828    2.4604 C.3     1  UNL1        0.0000
     42 H           2.1522   10.5559    2.6720 H       1  UNL1        0.0000
     43 H           0.7296    9.8241    3.3960 H       1  UNL1        0.0000
     44 H           0.6174   10.5923    1.8279 H       1  UNL1        0.0000
@<TRIPOS>BOND
     1    22    21    1
     2    24    23    1
     3    21    23   ar
     4    21    19   ar
     5    23    25   ar
     6    20    19    1
     7    19    18   ar
     8    25    26    1
     9    25    27   ar
    10    18    27   ar
    11    18    16    1
    12    36    34    1
    13    27    28    1
    14    33    32    1
    15    34    32    2
    16    34    35    1
    17    16    17    1
    18    16    14    2
    19    32    29    1
    20    15    14    1
    21    14    13    1
    22    31    29    1
    23    29    13    1
    24    29    30    1
    25    13     2    1
    26    13     8    1
    27     2     1    1
    28    10     9    1
    29    38    37    1
    30    40    37    1
    31     8     9    1
    32     8     7    1
    33     9    11    2
    34    37     1    1
    35    37    39    1
    36     1     7    1
    37     1    41    1
    38    44    41    1
    39     7     5    2
    40    41    42    1
    41    41    43    1
    42    11    12    1
    43    11     3    1
    44     5     3    1
    45     5     6    1
    46     3     4    1
