@<TRIPOS>MOLECULE
3,4,5,6,7,32
 42 43 0 0 0
SMALL
GASTEIGER

@<TRIPOS>ATOM
      1 SI          8.1253    1.4237    9.4122 Si      1  UNL1        0.0000
      2 N           8.3194   -0.1824   10.0689 N.3     1  UNL1        0.0000
      3 C           6.7274    2.0679   10.4832 C.3     1  UNL1        0.0000
      4 C           6.8661    2.5674   11.8110 C.2     1  UNL1        0.0000
      5 C           5.5793    2.6745   12.3898 C.2     1  UNL1        0.0000
      6 C           4.6274    2.2500   11.4178 C.2     1  UNL1        0.0000
      7 C           5.3300    1.8655   10.2578 C.2     1  UNL1        0.0000
      8 C           8.1508    3.0543   12.4219 C.3     1  UNL1        0.0000
      9 H           8.0087    3.3295   13.4650 H       1  UNL1        0.0000
     10 H           8.5090    3.9373   11.8901 H       1  UNL1        0.0000
     11 H           8.9313    2.2956   12.3705 H       1  UNL1        0.0000
     12 C           5.2399    3.3341   13.7003 C.3     1  UNL1        0.0000
     13 H           6.0581    3.2437   14.4132 H       1  UNL1        0.0000
     14 H           4.3517    2.8903   14.1516 H       1  UNL1        0.0000
     15 H           5.0408    4.3985   13.5496 H       1  UNL1        0.0000
     16 C           3.1361    2.4218   11.5325 C.3     1  UNL1        0.0000
     17 H           2.8265    3.3571   11.0588 H       1  UNL1        0.0000
     18 H           2.8240    2.4642   12.5752 H       1  UNL1        0.0000
     19 H           2.5923    1.6106   11.0460 H       1  UNL1        0.0000
     20 C           4.6981    1.5414    8.9304 C.3     1  UNL1        0.0000
     21 H           3.6139    1.4874    9.0204 H       1  UNL1        0.0000
     22 H           5.0587    0.5977    8.5176 H       1  UNL1        0.0000
     23 H           4.9299    2.3241    8.2068 H       1  UNL1        0.0000
     24 C           9.8105    2.3004    9.5694 C.3     1  UNL1        0.0000
     25 H          10.3213    2.0478   10.4905 H       1  UNL1        0.0000
     26 H           9.6890    3.3764    9.5394 H       1  UNL1        0.0000
     27 H          10.4611    2.0251    8.7464 H       1  UNL1        0.0000
     28 C           7.7549    1.4159    7.5232 C.3     1  UNL1        0.0000
     29 H           8.6655    1.2097    6.9678 H       1  UNL1        0.0000
     30 H           7.3796    2.3751    7.1831 H       1  UNL1        0.0000
     31 H           7.0284    0.6601    7.2435 H       1  UNL1        0.0000
     32 C           7.1476   -0.9806   10.4476 C.3     1  UNL1        0.0000
     33 H           6.4519   -0.9943    9.5702 H       1  UNL1        0.0000
     34 C           7.6962   -2.4066   10.6045 C.3     1  UNL1        0.0000
     35 H           6.9475   -3.1644   10.3614 H       1  UNL1        0.0000
     36 H           8.0544   -2.5854   11.6208 H       1  UNL1        0.0000
     37 C           8.8875   -2.4360    9.6413 C.3     1  UNL1        0.0000
     38 H           9.6017   -3.2271    9.8646 H       1  UNL1        0.0000
     39 H           8.5398   -2.5529    8.6125 H       1  UNL1        0.0000
     40 C           9.4713   -1.0410    9.8373 C.3     1  UNL1        0.0000
     41 H          10.1286   -1.0288   10.7185 H       1  UNL1        0.0000
     42 H          10.0505   -0.6975    8.9791 H       1  UNL1        0.0000
@<TRIPOS>BOND
     1    29    28    1
     2    30    28    1
     3    31    28    1
     4    28     1    1
     5    23    20    1
     6    22    20    1
     7    39    37    1
     8    27    24    1
     9    20    21    1
    10    20     7    1
    11    42    40    1
    12     1    24    1
    13     1     2    1
    14     1     3    1
    15    26    24    1
    16    24    25    1
    17    33    32    1
    18    37    40    1
    19    37    38    1
    20    37    34    1
    21    40     2    1
    22    40    41    1
    23     2    32    1
    24     7     3    1
    25     7     6    2
    26    35    34    1
    27    32    34    1
    28     3     4    1
    29    34    36    1
    30    19    16    1
    31    17    16    1
    32     6    16    1
    33     6     5    1
    34    16    18    1
    35     4     5    2
    36     4     8    1
    37    10     8    1
    38    11     8    1
    39     5    12    1
    40     8     9    1
    41    15    12    1
    42    12    14    1
    43    12    13    1
