@<TRIPOS>MOLECULE
6,7,9,11,13,15
 38 40 0 0 0
SMALL
GASTEIGER

@<TRIPOS>ATOM
      1 SI          2.1489    2.9718    2.7379 Si      1  UNL1        0.0000
      2 O           2.6296    0.8094    5.3440 O.2     1  UNL1        0.0000
      3 O           0.7016    2.5726    3.4429 O.3     1  UNL1        0.0000
      4 C           1.4530    0.8789    5.1004 C.2     1  UNL1        0.0000
      5 C           0.5020    2.0679    4.7206 C.3     1  UNL1        0.0000
      6 C          -0.5901    1.0014    4.7269 C.3     1  UNL1        0.0000
      7 C          -1.9594    0.8079    4.6121 C.2     1  UNL1        0.0000
      8 H          -2.6658    1.6158    4.4706 H       1  UNL1        0.0000
      9 C          -2.3763   -0.5338    4.7104 C.2     1  UNL1        0.0000
     10 H          -3.4356   -0.7602    4.6621 H       1  UNL1        0.0000
     11 C          -1.4827   -1.5864    5.0297 C.2     1  UNL1        0.0000
     12 H          -1.8896   -2.5789    5.1831 H       1  UNL1        0.0000
     13 C          -0.1120   -1.3733    5.1809 C.2     1  UNL1        0.0000
     14 H           0.5559   -2.1717    5.4811 H       1  UNL1        0.0000
     15 C           0.3195   -0.0372    5.0401 C.3     1  UNL1        0.0000
     16 C           0.3558    3.1253    5.7814 C.ar    1  UNL1        0.0000
     17 C           0.1050    4.4450    5.4328 C.ar    1  UNL1        0.0000
     18 H           0.0270    4.7037    4.3883 H       1  UNL1        0.0000
     19 C          -0.0407    5.4077    6.4153 C.ar    1  UNL1        0.0000
     20 H          -0.2333    6.4332    6.1362 H       1  UNL1        0.0000
     21 C           0.0590    5.0594    7.7514 C.ar    1  UNL1        0.0000
     22 H          -0.0509    5.8118    8.5180 H       1  UNL1        0.0000
     23 C           0.3007    3.7419    8.1035 C.ar    1  UNL1        0.0000
     24 H           0.3802    3.4652    9.1443 H       1  UNL1        0.0000
     25 C           0.4453    2.7762    7.1242 C.ar    1  UNL1        0.0000
     26 H           0.6393    1.7497    7.4044 H       1  UNL1        0.0000
     27 C           3.2938    3.8744    3.9667 C.3     1  UNL1        0.0000
     28 H           2.8209    4.7565    4.3906 H       1  UNL1        0.0000
     29 H           4.2149    4.1921    3.4893 H       1  UNL1        0.0000
     30 H           3.5615    3.2190    4.7907 H       1  UNL1        0.0000
     31 C           1.5553    4.1025    1.3332 C.3     1  UNL1        0.0000
     32 H           1.1258    5.0284    1.7025 H       1  UNL1        0.0000
     33 H           0.8045    3.6066    0.7279 H       1  UNL1        0.0000
     34 H           2.3853    4.3614    0.6859 H       1  UNL1        0.0000
     35 C           2.9990    1.4037    2.0700 C.3     1  UNL1        0.0000
     36 H           3.4306    0.8109    2.8714 H       1  UNL1        0.0000
     37 H           3.8012    1.6515    1.3829 H       1  UNL1        0.0000
     38 H           2.2914    0.7726    1.5369 H       1  UNL1        0.0000
@<TRIPOS>BOND
     1    34    31    1
     2    33    31    1
     3    31    32    1
     4    31     1    1
     5    37    35    1
     6    38    35    1
     7    35     1    1
     8    35    36    1
     9     1     3    1
    10     1    27    1
    11     3     5    1
    12    29    27    1
    13    27    28    1
    14    27    30    1
    15    18    17    1
    16     8     7    1
    17     7     9    2
    18     7     6    1
    19    10     9    1
    20     9    11    1
    21     5     6    1
    22     5     4    1
    23     5    16    1
    24     6    15    1
    25    11    13    2
    26    11    12    1
    27    15     4    1
    28    15    13    1
    29     4     2    2
    30    13    14    1
    31    17    16   ar
    32    17    19   ar
    33    16    25   ar
    34    20    19    1
    35    19    21   ar
    36    25    26    1
    37    25    23   ar
    38    21    23   ar
    39    21    22    1
    40    23    24    1
