@<TRIPOS>MOLECULE
1,2,3,4,5,6
 54 55 0 0 0
SMALL
GASTEIGER

@<TRIPOS>ATOM
      1 C           1.3799    2.1625    9.0777 C.3     1  UNL1        0.0000
      2 C           1.7363    0.9157    8.5348 C.2     1  UNL1        0.0000
      3 C           2.9719    0.3453    8.8406 C.2     1  UNL1        0.0000
      4 C           3.8509    1.0092    9.7211 C.2     1  UNL1        0.0000
      5 C           3.4946    2.2370   10.2671 C.2     1  UNL1        0.0000
      6 C           2.2498    2.8361    9.9448 C.3     1  UNL1        0.0000
      7 C           1.9366    4.1590   10.4915 C.2     1  UNL1        0.0000
      8 C           2.1412    4.3871   11.9313 C.2     1  UNL1        0.0000
      9 SI          1.1606    3.3487   13.2043 Si      1  UNL1        0.0000
     10 C           2.2909    2.1063   14.1665 C.3     1  UNL1        0.0000
     11 C           2.4988    0.8121   13.3754 C.3     1  UNL1        0.0000
     12 C           1.6356    1.7461   15.5028 C.3     1  UNL1        0.0000
     13 C           3.6548    2.7395   14.4498 C.3     1  UNL1        0.0000
     14 C           1.5926    5.1690    9.6652 C.2     1  UNL1        0.0000
     15 O           1.4632    4.9005    8.3302 O.2     1  UNL1        0.0000
     16 C           1.2868    5.9853    7.4442 C.3     1  UNL1        0.0000
     17 C           1.4107    6.5431   10.1850 C.ar    1  UNL1        0.0000
     18 C           2.3992    7.5019    9.9876 C.ar    1  UNL1        0.0000
     19 C           2.2428    8.7750   10.5054 C.ar    1  UNL1        0.0000
     20 C           1.1042    9.0999   11.2229 C.ar    1  UNL1        0.0000
     21 C           0.1189    8.1476   11.4252 C.ar    1  UNL1        0.0000
     22 C           0.2700    6.8738   10.9095 C.ar    1  UNL1        0.0000
     23 C           2.7720    5.3997   12.4286 C.1     1  UNL1        0.0000
     24 O           3.3520    6.2378   12.9950 O.2     1  UNL1        0.0000
     25 C           0.3566    4.5895   14.4080 C.3     1  UNL1        0.0000
     26 C          -0.2036    2.4371   12.2323 C.3     1  UNL1        0.0000
     27 H           0.3997    2.5761    8.8791 H       1  UNL1        0.0000
     28 H           1.0215    0.3708    7.9285 H       1  UNL1        0.0000
     29 H           3.2258   -0.6409    8.4712 H       1  UNL1        0.0000
     30 H           4.7781    0.5303   10.0134 H       1  UNL1        0.0000
     31 H           4.1425    2.7328   10.9813 H       1  UNL1        0.0000
     32 H           1.5543    0.2918   13.2330 H       1  UNL1        0.0000
     33 H           2.9306    1.0135   12.3983 H       1  UNL1        0.0000
     34 H           3.1731    0.1460   13.9132 H       1  UNL1        0.0000
     35 H           2.2429    1.0142   16.0342 H       1  UNL1        0.0000
     36 H           0.6479    1.3172   15.3487 H       1  UNL1        0.0000
     37 H           1.5344    2.6237   16.1355 H       1  UNL1        0.0000
     38 H           4.2755    2.0601   15.0331 H       1  UNL1        0.0000
     39 H           4.1791    2.9697   13.5254 H       1  UNL1        0.0000
     40 H           3.5447    3.6643   15.0115 H       1  UNL1        0.0000
     41 H           2.2002    6.5779    7.3562 H       1  UNL1        0.0000
     42 H           1.0621    5.5357    6.4792 H       1  UNL1        0.0000
     43 H           0.4620    6.6316    7.7584 H       1  UNL1        0.0000
     44 H           3.2961    7.2397    9.4456 H       1  UNL1        0.0000
     45 H           3.0163    9.5127   10.3544 H       1  UNL1        0.0000
     46 H           0.9864   10.0930   11.6298 H       1  UNL1        0.0000
     47 H          -0.7687    8.3982   11.9875 H       1  UNL1        0.0000
     48 H          -0.4930    6.1250   11.0676 H       1  UNL1        0.0000
     49 H           1.1087    5.1062   14.9960 H       1  UNL1        0.0000
     50 H          -0.3288    4.1061   15.0964 H       1  UNL1        0.0000
     51 H          -0.1996    5.3468   13.8639 H       1  UNL1        0.0000
     52 H          -0.7837    3.1353   11.6374 H       1  UNL1        0.0000
     53 H           0.2019    1.6885   11.5603 H       1  UNL1        0.0000
     54 H          -0.8880    1.9359   12.9092 H       1  UNL1        0.0000
@<TRIPOS>BOND
     1    42    16    1
     2    41    16    1
     3    16    43    1
     4    16    15    1
     5    28     2    1
     6    15    14    1
     7    29     3    1
     8     2     3    2
     9     2     1    1
    10     3     4    1
    11    27     1    1
    12     1     6    1
    13    44    18    1
    14    14    17    1
    15    14     7    2
    16     4    30    1
    17     4     5    2
    18     6     5    1
    19     6     7    1
    20    18    17   ar
    21    18    19   ar
    22    17    22   ar
    23     5    31    1
    24    45    19    1
    25     7     8    1
    26    19    20   ar
    27    22    48    1
    28    22    21   ar
    29    20    21   ar
    30    20    46    1
    31    21    47    1
    32    53    26    1
    33    52    26    1
    34     8    23    2
    35     8     9    1
    36    26    54    1
    37    26     9    1
    38    33    11    1
    39    23    24    2
    40     9    10    1
    41     9    25    1
    42    32    11    1
    43    11    34    1
    44    11    10    1
    45    39    13    1
    46    51    25    1
    47    10    13    1
    48    10    12    1
    49    25    49    1
    50    25    50    1
    51    13    40    1
    52    13    38    1
    53    36    12    1
    54    12    35    1
    55    12    37    1
