@<TRIPOS>MOLECULE
1,2,3,4,5,6
 15 15 0 0 0
SMALL
GASTEIGER

@<TRIPOS>ATOM
      1 C           5.9031   -2.4969    1.0242 C.3     1  UNL1       -0.0090
      2 C           5.9287   -2.9758    2.3449 C.3     1  UNL1       -0.0087
      3 C           4.8387   -3.7172    2.8639 C.2     1  UNL1       -0.0769
      4 C           3.6818   -3.9128    2.0960 C.2     1  UNL1       -0.0543
      5 C           3.6451   -3.4015    0.7635 C.2     1  UNL1       -0.0628
      6 C           4.7485   -2.7132    0.2357 C.2     1  UNL1       -0.0795
      7 C           2.5708   -4.7961    2.5867 C.3     1  UNL1       -0.0400
      8 H           6.7893   -2.0527    0.5845 H       1  UNL1        0.0355
      9 H           6.8477   -2.8932    2.9215 H       1  UNL1        0.0355
     10 H           4.9201   -4.1892    3.8374 H       1  UNL1        0.0578
     11 H           2.7950   -3.6340    0.1281 H       1  UNL1        0.0617
     12 H           4.7422   -2.4038   -0.8058 H       1  UNL1        0.0575
     13 H           2.5610   -4.8533    3.6734 H       1  UNL1        0.0277
     14 H           1.6014   -4.4289    2.2541 H       1  UNL1        0.0277
     15 H           2.7049   -5.8049    2.1885 H       1  UNL1        0.0277
@<TRIPOS>BOND
     1    12     6    1
     2    11     5    1
     3     6     5    2
     4     6     1    1
     5     8     1    1
     6     5     4    1
     7     1     2    1
     8     4     7    1
     9     4     3    2
    10    15     7    1
    11    14     7    1
    12     2     3    1
    13     2     9    1
    14     7    13    1
    15     3    10    1
