@<TRIPOS>MOLECULE
2,3,5,7,9,11
 35 37 0 0 0
SMALL
GASTEIGER

@<TRIPOS>ATOM
      1 SI          6.3157    4.4252    1.1126 Si      1  UNL1        0.0000
      2 C           5.9689    5.1300   -0.6125 C.3     1  UNL1        0.0000
      3 C           5.8663    4.2540   -1.7174 C.3     1  UNL1        0.0000
      4 H           6.0317    3.1917   -1.5600 H       1  UNL1        0.0000
      5 C           5.6790    4.7321   -3.0222 C.3     1  UNL1        0.0000
      6 H           5.6980    4.0511   -3.8660 H       1  UNL1        0.0000
      7 C           5.5146    6.1138   -3.2326 C.3     1  UNL1        0.0000
      8 H           5.4057    6.4946   -4.2432 H       1  UNL1        0.0000
      9 C           5.5969    7.0073   -2.1554 C.3     1  UNL1        0.0000
     10 H           5.5555    8.0774   -2.3277 H       1  UNL1        0.0000
     11 C           5.7981    6.5049   -0.8549 C.3     1  UNL1        0.0000
     12 H           5.9168    7.2049   -0.0324 H       1  UNL1        0.0000
     13 C           5.8946    5.7109    2.4246 C.ar    1  UNL1        0.0000
     14 C           4.7031    6.4312    2.3780 C.ar    1  UNL1        0.0000
     15 H           4.0090    6.2671    1.5640 H       1  UNL1        0.0000
     16 C           4.3907    7.3583    3.3555 C.ar    1  UNL1        0.0000
     17 H           3.4610    7.9051    3.2971 H       1  UNL1        0.0000
     18 C           5.2682    7.5822    4.4030 C.ar    1  UNL1        0.0000
     19 H           5.0276    8.3065    5.1674 H       1  UNL1        0.0000
     20 C           6.4561    6.8725    4.4670 C.ar    1  UNL1        0.0000
     21 H           7.1440    7.0420    5.2829 H       1  UNL1        0.0000
     22 C           6.7622    5.9463    3.4870 C.ar    1  UNL1        0.0000
     23 H           7.6894    5.3944    3.5424 H       1  UNL1        0.0000
     24 C           5.2730    2.8580    1.2734 C.ar    1  UNL1        0.0000
     25 C           5.8179    1.6091    0.9862 C.ar    1  UNL1        0.0000
     26 H           6.8617    1.5357    0.7122 H       1  UNL1        0.0000
     27 C           5.0461    0.4636    1.0480 C.ar    1  UNL1        0.0000
     28 H           5.4859   -0.4963    0.8172 H       1  UNL1        0.0000
     29 C           3.7102    0.5480    1.4033 C.ar    1  UNL1        0.0000
     30 H           3.1049   -0.3453    1.4483 H       1  UNL1        0.0000
     31 C           3.1542    1.7806    1.6998 C.ar    1  UNL1        0.0000
     32 H           2.1129    1.8531    1.9748 H       1  UNL1        0.0000
     33 C           3.9289    2.9243    1.6331 C.ar    1  UNL1        0.0000
     34 H           3.4818    3.8809    1.8634 H       1  UNL1        0.0000
     35 H           7.7572    4.1075    1.1435 H       1  UNL1        0.0000
@<TRIPOS>BOND
     1     8     7    1
     2     6     5    1
     3     7     5    1
     4     7     9    1
     5     5     3    1
     6    10     9    1
     7     9    11    1
     8     3     4    1
     9     3     2    1
    10    11     2    1
    11    11    12    1
    12     2     1    1
    13    26    25    1
    14    28    27    1
    15    25    27   ar
    16    25    24   ar
    17    27    29   ar
    18     1    35    1
    19     1    24    1
    20     1    13    1
    21    24    33   ar
    22    29    30    1
    23    29    31   ar
    24    15    14    1
    25    33    31   ar
    26    33    34    1
    27    31    32    1
    28    14    13   ar
    29    14    16   ar
    30    13    22   ar
    31    17    16    1
    32    16    18   ar
    33    22    23    1
    34    22    20   ar
    35    18    20   ar
    36    18    19    1
    37    20    21    1
