@<TRIPOS>MOLECULE
1,2,3,4,5,6
 35 37 0 0 0
SMALL
GASTEIGER

@<TRIPOS>ATOM
      1 C           7.9154    1.4821    5.5790 C.2     1  UNL1        0.0000
      2 C           6.9237    2.2167    6.2465 C.2     1  UNL1        0.0000
      3 C           5.8864    1.5951    6.9707 C.2     1  UNL1        0.0000
      4 C           5.7804    0.1958    7.0136 C.3     1  UNL1        0.0000
      5 C           6.7824   -0.5751    6.3861 C.3     1  UNL1        0.0000
      6 C           7.8571    0.0642    5.7556 C.2     1  UNL1        0.0000
      7 C           8.4633    3.6652    4.1595 C.ar    1  UNL1        0.0000
      8 C           8.6951    4.6736    5.0959 C.ar    1  UNL1        0.0000
      9 C           8.3171    5.9873    4.8819 C.ar    1  UNL1        0.0000
     10 C           7.6905    6.3418    3.7001 C.ar    1  UNL1        0.0000
     11 C           7.4582    5.3674    2.7452 C.ar    1  UNL1        0.0000
     12 C           7.8390    4.0570    2.9773 C.ar    1  UNL1        0.0000
     13 C           8.6958    1.1715    3.1588 C.ar    1  UNL1        0.0000
     14 C           9.7760    0.7080    2.4129 C.ar    1  UNL1        0.0000
     15 C           9.6096   -0.1095    1.3082 C.ar    1  UNL1        0.0000
     16 C           8.3399   -0.4950    0.9156 C.ar    1  UNL1        0.0000
     17 C           7.2453   -0.0491    1.6368 C.ar    1  UNL1        0.0000
     18 C           7.4277    0.7682    2.7377 C.ar    1  UNL1        0.0000
     19 B           8.8957    2.1283    4.4528 B       1  UNL1        0.0000
     20 H          10.0468    2.0944    4.8110 H       1  UNL1        0.0000
     21 H           6.8906    3.2912    6.1054 H       1  UNL1        0.0000
     22 H           5.0686    2.1989    7.3626 H       1  UNL1        0.0000
     23 H           4.8886   -0.2756    7.4131 H       1  UNL1        0.0000
     24 H           6.6714   -1.6538    6.3237 H       1  UNL1        0.0000
     25 H           8.5621   -0.5471    5.1987 H       1  UNL1        0.0000
     26 H           9.1909    4.4274    6.0285 H       1  UNL1        0.0000
     27 H           8.5134    6.7390    5.6373 H       1  UNL1        0.0000
     28 H           7.3917    7.3666    3.5244 H       1  UNL1        0.0000
     29 H           6.9754    5.6321    1.8131 H       1  UNL1        0.0000
     30 H           7.6483    3.3159    2.2131 H       1  UNL1        0.0000
     31 H          10.7766    1.0013    2.7041 H       1  UNL1        0.0000
     32 H          10.4728   -0.4491    0.7501 H       1  UNL1        0.0000
     33 H           8.2029   -1.1348    0.0541 H       1  UNL1        0.0000
     34 H           6.2461   -0.3401    1.3367 H       1  UNL1        0.0000
     35 H           6.5542    1.1097    3.2828 H       1  UNL1        0.0000
@<TRIPOS>BOND
     1    33    16    1
     2    32    15    1
     3    16    15   ar
     4    16    17   ar
     5    15    14   ar
     6    34    17    1
     7    17    18   ar
     8    29    11    1
     9    30    12    1
    10    14    31    1
    11    14    13   ar
    12    18    13   ar
    13    18    35    1
    14    11    12   ar
    15    11    10   ar
    16    12     7   ar
    17    13    19    1
    18    28    10    1
    19    10     9   ar
    20     7    19    1
    21     7     8   ar
    22    19    20    1
    23    19     1    1
    24     9     8   ar
    25     9    27    1
    26     8    26    1
    27    25     6    1
    28     1     6    2
    29     1     2    1
    30     6     5    1
    31    21     2    1
    32     2     3    2
    33    24     5    1
    34     5     4    1
    35     3     4    1
    36     3    22    1
    37     4    23    1
