@<TRIPOS>MOLECULE
7,8,9,10,12,13
 51 52 0 0 0
SMALL
GASTEIGER

@<TRIPOS>ATOM
      1 SI         -1.1469    4.2190    1.3977 Si      1  UNL1        0.0000
      2 SI         -1.1996    7.9193    2.6712 Si      1  UNL1        0.0000
      3 O          -2.5802    5.6606    7.2105 O.3     1  UNL1        0.0000
      4 O          -2.7077    3.4836    6.5818 O.2     1  UNL1        0.0000
      5 N          -1.5486    4.9838    5.3555 N.am    1  UNL1        0.0000
      6 C          -1.0690    4.0693    4.3399 C.3     1  UNL1        0.0000
      7 C           0.2898    3.5300    4.7132 C.3     1  UNL1        0.0000
      8 C           1.1333    4.1151    5.6196 C.3     1  UNL1        0.0000
      9 C           1.1644    5.4960    6.0290 C.3     1  UNL1        0.0000
     10 C           0.3310    6.5079    5.6451 C.3     1  UNL1        0.0000
     11 C          -1.0400    6.3026    5.0548 C.3     1  UNL1        0.0000
     12 C          -0.8604    6.2647    3.5417 C.3     1  UNL1        0.0000
     13 C          -0.8768    4.9676    3.1252 C.3     1  UNL1        0.0000
     14 C          -2.3078    4.6099    6.4008 C.2     1  UNL1        0.0000
     15 C          -3.4076    5.3692    8.3353 C.3     1  UNL1        0.0000
     16 C          -3.9466    6.6762    8.8864 C.3     1  UNL1        0.0000
     17 C           0.0416    4.8600    0.0523 C.3     1  UNL1        0.0000
     18 C          -2.9663    4.6185    0.9591 C.3     1  UNL1        0.0000
     19 C          -0.9478    2.3242    1.5315 C.3     1  UNL1        0.0000
     20 C          -0.3151    9.3078    3.6399 C.3     1  UNL1        0.0000
     21 C          -0.7426    8.0667    0.8340 C.3     1  UNL1        0.0000
     22 C          -3.0928    8.1425    2.8718 C.3     1  UNL1        0.0000
     23 H          -1.7925    3.2618    4.1999 H       1  UNL1        0.0000
     24 H           0.4619    2.4897    4.4632 H       1  UNL1        0.0000
     25 H           1.9343    3.5011    6.0227 H       1  UNL1        0.0000
     26 H           1.9995    5.7597    6.6733 H       1  UNL1        0.0000
     27 H           0.5502    7.5105    5.9902 H       1  UNL1        0.0000
     28 H          -1.7386    7.0676    5.4034 H       1  UNL1        0.0000
     29 H          -2.8079    4.8423    9.0868 H       1  UNL1        0.0000
     30 H          -4.2170    4.7031    8.0177 H       1  UNL1        0.0000
     31 H          -4.5696    6.4752    9.7529 H       1  UNL1        0.0000
     32 H          -3.1261    7.3252    9.1808 H       1  UNL1        0.0000
     33 H          -4.5407    7.1862    8.1325 H       1  UNL1        0.0000
     34 H           0.6419    4.0449   -0.3378 H       1  UNL1        0.0000
     35 H          -0.4968    5.2913   -0.7849 H       1  UNL1        0.0000
     36 H           0.7277    5.6072    0.4380 H       1  UNL1        0.0000
     37 H          -3.2723    4.0743    0.0713 H       1  UNL1        0.0000
     38 H          -3.6410    4.3376    1.7622 H       1  UNL1        0.0000
     39 H          -3.1102    5.6756    0.7620 H       1  UNL1        0.0000
     40 H          -1.1367    1.8561    0.5700 H       1  UNL1        0.0000
     41 H           0.0623    2.0566    1.8264 H       1  UNL1        0.0000
     42 H          -1.6345    1.8791    2.2450 H       1  UNL1        0.0000
     43 H          -0.4908   10.2710    3.1703 H       1  UNL1        0.0000
     44 H          -0.6659    9.3825    4.6651 H       1  UNL1        0.0000
     45 H           0.7589    9.1514    3.6647 H       1  UNL1        0.0000
     46 H          -1.0087    9.0575    0.4786 H       1  UNL1        0.0000
     47 H           0.3215    7.9401    0.6732 H       1  UNL1        0.0000
     48 H          -1.2652    7.3463    0.2172 H       1  UNL1        0.0000
     49 H          -3.4360    9.0144    2.3241 H       1  UNL1        0.0000
     50 H          -3.6428    7.2842    2.4999 H       1  UNL1        0.0000
     51 H          -3.3750    8.2826    3.9108 H       1  UNL1        0.0000
@<TRIPOS>BOND
     1    35    17    1
     2    34    17    1
     3    17    36    1
     4    17     1    1
     5    37    18    1
     6    48    21    1
     7    46    21    1
     8    40    19    1
     9    47    21    1
    10    39    18    1
    11    21     2    1
    12    18     1    1
    13    18    38    1
    14     1    19    1
    15     1    13    1
    16    19    41    1
    17    19    42    1
    18    49    22    1
    19    50    22    1
    20     2    22    1
    21     2    12    1
    22     2    20    1
    23    22    51    1
    24    13    12    1
    25    13     6    1
    26    43    20    1
    27    12    11    1
    28    20    45    1
    29    20    44    1
    30    23     6    1
    31     6     7    1
    32     6     5    1
    33    24     7    1
    34     7     8    1
    35    11     5    1
    36    11    28    1
    37    11    10    1
    38     5    14   am
    39     8    25    1
    40     8     9    1
    41    10    27    1
    42    10     9    1
    43     9    26    1
    44    14     4    2
    45    14     3    1
    46     3    15    1
    47    30    15    1
    48    33    16    1
    49    15    16    1
    50    15    29    1
    51    16    32    1
    52    16    31    1
