@<TRIPOS>MOLECULE
1,2,3,4,9,10
 12 12 0 0 0
SMALL
GASTEIGER

@<TRIPOS>ATOM
      1 C          10.2617    2.7788    2.8345 C.3     1  UNL1       -0.0269
      2 C           9.5656    3.9851    2.7113 C.3     1  UNL1       -0.0130
      3 C           8.1649    3.9851    2.6277 C.2     1  UNL1       -0.0837
      4 C           7.4591    2.7788    2.6672 C.2     1  UNL1       -0.0837
      5 H          11.3324    2.7788    2.9670 H       1  UNL1        0.0312
      6 H          10.1005    4.9199    2.7043 H       1  UNL1        0.0352
      7 H           7.6346    4.9198    2.5571 H       1  UNL1        0.0572
      8 H           6.3803    2.7788    2.6715 H       1  UNL1        0.0572
      9 C           9.5656    1.5724    2.7113 C.3     1  UNL1       -0.0269
     10 C           8.1649    1.5724    2.6277 C.3     1  UNL1       -0.0130
     11 H           7.6346    0.6377    2.5571 H       1  UNL1        0.0352
     12 H          10.1005    0.6377    2.7043 H       1  UNL1        0.0312
@<TRIPOS>BOND
     1     7     3    1
     2    11    10    1
     3    10     4    1
     4    10     9    1
     5     3     4    2
     6     3     2    1
     7     4     8    1
     8     6     2    1
     9    12     9    1
    10     2     1    1
    11     9     1    1
    12     1     5    1
