@<TRIPOS>MOLECULE
1,2,3,4,5,6
 18 18 0 0 0
SMALL
GASTEIGER

@<TRIPOS>ATOM
      1 C           3.4150    3.8946    2.3936 C.2     1  UNL1       -0.0683
      2 C           3.4067    2.6615    1.7328 C.2     1  UNL1       -0.0765
      3 C           3.7199    1.4933    2.4336 C.3     1  UNL1        0.0081
      4 C           3.9555    1.5082    3.8186 C.2     1  UNL1       -0.0683
      5 C           3.8273    2.7227    4.5004 C.2     1  UNL1       -0.0765
      6 C           3.6066    3.9034    3.7852 C.3     1  UNL1        0.0081
      7 C           3.2268    5.1846    1.6734 C.3     1  UNL1       -0.0432
      8 C           4.3318    0.2428    4.5084 C.3     1  UNL1       -0.0432
      9 H           3.1998    2.6169    0.6753 H       1  UNL1        0.0578
     10 H           3.7769    0.5541    1.9088 H       1  UNL1        0.0397
     11 H           3.9401    2.7552    5.5725 H       1  UNL1        0.0578
     12 H           3.5739    4.8456    4.3066 H       1  UNL1        0.0397
     13 H           2.2138    5.5593    1.8174 H       1  UNL1        0.0275
     14 H           3.4109    5.0671    0.6107 H       1  UNL1        0.0275
     15 H           3.9233    5.9187    2.0703 H       1  UNL1        0.0275
     16 H           3.4689   -0.4162    4.5985 H       1  UNL1        0.0275
     17 H           4.7303    0.4407    5.4977 H       1  UNL1        0.0275
     18 H           5.0914   -0.2674    3.9214 H       1  UNL1        0.0275
@<TRIPOS>BOND
     1    14     7    1
     2     9     2    1
     3     7    13    1
     4     7    15    1
     5     7     1    1
     6     2     1    2
     7     2     3    1
     8    10     3    1
     9     1     6    1
    10     3     4    1
    11     6    12    1
    12     6     5    1
    13     4     5    2
    14     4     8    1
    15    18     8    1
    16     5    11    1
    17     8    16    1
    18     8    17    1
