@<TRIPOS>MOLECULE
4,5,6,7,8,13
 81 83 0 0 0
SMALL
GASTEIGER

@<TRIPOS>ATOM
      1 SI          3.8295   12.2011    2.5534 Si      1  UNL1        0.0000
      2 O           7.6497    7.7126    5.9366 O.3     1  UNL1        0.0000
      3 O           5.3639   11.9093    3.1021 O.3     1  UNL1        0.0000
      4 C           5.9551   10.8641    3.7385 C.3     1  UNL1        0.0000
      5 C           7.0268   10.1564    3.1654 C.3     1  UNL1        0.0000
      6 C           7.5873    9.0791    3.9113 C.3     1  UNL1        0.0000
      7 C           7.1292    8.7046    5.1678 C.3     1  UNL1        0.0000
      8 C           6.1588    9.5368    5.8300 C.ar    1  UNL1        0.0000
      9 C           5.7928    9.3202    7.1729 C.ar    1  UNL1        0.0000
     10 C           4.9535   10.1904    7.8180 C.ar    1  UNL1        0.0000
     11 C           4.4918   11.3347    7.1580 C.ar    1  UNL1        0.0000
     12 C           4.8204   11.5634    5.8471 C.ar    1  UNL1        0.0000
     13 C           5.6161   10.6508    5.1259 C.ar    1  UNL1        0.0000
     14 C           7.7234   10.6221    1.8854 C.3     1  UNL1        0.0000
     15 C           8.8687    9.6951    1.4581 C.3     1  UNL1        0.0000
     16 C           6.7487   10.7032    0.7071 C.3     1  UNL1        0.0000
     17 C           8.3121   12.0134    2.1732 C.3     1  UNL1        0.0000
     18 C           8.5497    6.7532    5.3857 C.3     1  UNL1        0.0000
     19 C           9.1600    5.9849    6.5687 C.3     1  UNL1        0.0000
     20 C          10.1017    4.9103    6.0224 C.3     1  UNL1        0.0000
     21 C           9.3619    3.9495    5.0963 C.3     1  UNL1        0.0000
     22 C           8.7447    4.7027    3.9189 C.3     1  UNL1        0.0000
     23 C           7.8147    5.7908    4.4513 C.3     1  UNL1        0.0000
     24 C           7.9778    3.7630    2.9943 C.3     1  UNL1        0.0000
     25 C           9.8196    6.9328    7.5925 C.3     1  UNL1        0.0000
     26 C          10.0181    6.2331    8.9362 C.3     1  UNL1        0.0000
     27 C          11.1462    7.5239    7.1181 C.3     1  UNL1        0.0000
     28 C           3.4137   11.1523    1.0151 C.3     1  UNL1        0.0000
     29 C           2.4310   11.8780    3.8144 C.3     1  UNL1        0.0000
     30 C           3.9522   14.0794    2.1435 C.3     1  UNL1        0.0000
     31 C           4.9897   14.3563    1.0531 C.3     1  UNL1        0.0000
     32 C           2.5887   14.5532    1.6414 C.3     1  UNL1        0.0000
     33 C           4.3300   14.8948    3.3832 C.3     1  UNL1        0.0000
     34 H           8.4321    8.5531    3.4964 H       1  UNL1        0.0000
     35 H           6.2066    8.4624    7.6803 H       1  UNL1        0.0000
     36 H           4.6740   10.0143    8.8453 H       1  UNL1        0.0000
     37 H           3.8836   12.0494    7.6914 H       1  UNL1        0.0000
     38 H           4.5053   12.4690    5.3563 H       1  UNL1        0.0000
     39 H           8.5040    8.6883    1.2630 H       1  UNL1        0.0000
     40 H           9.6665    9.6618    2.1978 H       1  UNL1        0.0000
     41 H           9.3016   10.0759    0.5356 H       1  UNL1        0.0000
     42 H           7.2965   10.9233   -0.2067 H       1  UNL1        0.0000
     43 H           6.0202   11.4872    0.8615 H       1  UNL1        0.0000
     44 H           6.2318    9.7542    0.5808 H       1  UNL1        0.0000
     45 H           9.0499   11.9584    2.9726 H       1  UNL1        0.0000
     46 H           7.5300   12.7045    2.4743 H       1  UNL1        0.0000
     47 H           8.7975   12.4059    1.2825 H       1  UNL1        0.0000
     48 H           9.3564    7.2660    4.8428 H       1  UNL1        0.0000
     49 H           8.3278    5.4902    7.0810 H       1  UNL1        0.0000
     50 H          10.9132    5.3818    5.4650 H       1  UNL1        0.0000
     51 H          10.5394    4.3531    6.8511 H       1  UNL1        0.0000
     52 H          10.0541    3.1896    4.7278 H       1  UNL1        0.0000
     53 H           8.5709    3.4406    5.6508 H       1  UNL1        0.0000
     54 H           9.5518    5.1773    3.3475 H       1  UNL1        0.0000
     55 H           7.3683    6.3386    3.6173 H       1  UNL1        0.0000
     56 H           6.9980    5.3296    5.0096 H       1  UNL1        0.0000
     57 H           7.5401    4.3157    2.1667 H       1  UNL1        0.0000
     58 H           7.1730    3.2737    3.5373 H       1  UNL1        0.0000
     59 H           8.6380    2.9983    2.5917 H       1  UNL1        0.0000
     60 H           9.1170    7.7588    7.7475 H       1  UNL1        0.0000
     61 H          10.4012    6.9370    9.6717 H       1  UNL1        0.0000
     62 H          10.7308    5.4165    8.8491 H       1  UNL1        0.0000
     63 H           9.0773    5.8319    9.3056 H       1  UNL1        0.0000
     64 H          11.4852    8.2774    7.8259 H       1  UNL1        0.0000
     65 H          11.0444    8.0007    6.1462 H       1  UNL1        0.0000
     66 H          11.9135    6.7567    7.0518 H       1  UNL1        0.0000
     67 H           3.8018   11.5700    0.0914 H       1  UNL1        0.0000
     68 H           2.3388   11.0641    0.8988 H       1  UNL1        0.0000
     69 H           3.8064   10.1435    1.1133 H       1  UNL1        0.0000
     70 H           1.4816   11.7879    3.2964 H       1  UNL1        0.0000
     71 H           2.3176   12.6678    4.5513 H       1  UNL1        0.0000
     72 H           2.5881   10.9467    4.3510 H       1  UNL1        0.0000
     73 H           5.9799   14.0423    1.3718 H       1  UNL1        0.0000
     74 H           5.0281   15.4227    0.8313 H       1  UNL1        0.0000
     75 H           4.7391   13.8311    0.1348 H       1  UNL1        0.0000
     76 H           2.2955   14.0026    0.7516 H       1  UNL1        0.0000
     77 H           2.6210   15.6132    1.3918 H       1  UNL1        0.0000
     78 H           1.8236   14.4056    2.3986 H       1  UNL1        0.0000
     79 H           5.2915   14.5729    3.7771 H       1  UNL1        0.0000
     80 H           3.5806   14.7867    4.1643 H       1  UNL1        0.0000
     81 H           4.4030   15.9530    3.1334 H       1  UNL1        0.0000
@<TRIPOS>BOND
     1    42    16    1
     2    67    28    1
     3    75    31    1
     4    41    15    1
     5    44    16    1
     6    16    43    1
     7    16    14    1
     8    76    32    1
     9    74    31    1
    10    68    28    1
    11    28    69    1
    12    28     1    1
    13    31    73    1
    14    31    30    1
    15    39    15    1
    16    47    17    1
    17    77    32    1
    18    15    14    1
    19    15    40    1
    20    32    30    1
    21    32    78    1
    22    14    17    1
    23    14     5    1
    24    30     1    1
    25    30    33    1
    26    57    24    1
    27    17    46    1
    28    17    45    1
    29     1     3    1
    30     1    29    1
    31    59    24    1
    32    24    58    1
    33    24    22    1
    34     3     4    1
    35    81    33    1
    36     5     4    1
    37     5     6    1
    38    70    29    1
    39    54    22    1
    40    33    79    1
    41    33    80    1
    42    34     6    1
    43    55    23    1
    44     4    13    1
    45    29    72    1
    46    29    71    1
    47     6     7    1
    48    22    23    1
    49    22    21    1
    50    23    56    1
    51    23    18    1
    52    52    21    1
    53    48    18    1
    54    21    53    1
    55    21    20    1
    56    13     8   ar
    57    13    12   ar
    58     7     8    1
    59     7     2    1
    60    38    12    1
    61    18     2    1
    62    18    19    1
    63    50    20    1
    64     8     9   ar
    65    12    11   ar
    66    20    19    1
    67    20    51    1
    68    65    27    1
    69    19    49    1
    70    19    25    1
    71    66    27    1
    72    27    25    1
    73    27    64    1
    74    11    37    1
    75    11    10   ar
    76     9    35    1
    77     9    10   ar
    78    25    60    1
    79    25    26    1
    80    10    36    1
    81    62    26    1
    82    26    63    1
    83    26    61    1
