@<TRIPOS>MOLECULE
4,5,6,7,8,13
 81 83 0 0 0
SMALL
GASTEIGER

@<TRIPOS>ATOM
      1 SI         -0.8412    6.3585   27.7480 Si      1  UNL1        0.0000
      2 O           2.9693    1.8622   24.3557 O.3     1  UNL1        0.0000
      3 O           0.6957    6.0437   27.2205 O.3     1  UNL1        0.0000
      4 C           1.2821    5.0000   26.5778 C.3     1  UNL1        0.0000
      5 C           2.3508    4.2841   27.1470 C.3     1  UNL1        0.0000
      6 C           2.9126    3.2148   26.3905 C.3     1  UNL1        0.0000
      7 C           2.4519    2.8498   25.1324 C.3     1  UNL1        0.0000
      8 C           1.4821    3.6878   24.4768 C.ar    1  UNL1        0.0000
      9 C           1.1133    3.4797   23.1334 C.ar    1  UNL1        0.0000
     10 C           0.2788    4.3582   22.4932 C.ar    1  UNL1        0.0000
     11 C          -0.1741    5.5026   23.1589 C.ar    1  UNL1        0.0000
     12 C           0.1563    5.7221   24.4710 C.ar    1  UNL1        0.0000
     13 C           0.9456    4.8005   25.1875 C.ar    1  UNL1        0.0000
     14 C           3.0415    4.7318   28.4363 C.3     1  UNL1        0.0000
     15 C           4.1670    3.7836   28.8699 C.3     1  UNL1        0.0000
     16 C           2.0553    4.8210   29.6046 C.3     1  UNL1        0.0000
     17 C           3.6533    6.1161   28.1636 C.3     1  UNL1        0.0000
     18 C           3.8782    0.9052   24.8952 C.3     1  UNL1        0.0000
     19 C           4.4847    0.1471   23.7037 C.3     1  UNL1        0.0000
     20 C           5.4373   -0.9242   24.2373 C.3     1  UNL1        0.0000
     21 C           4.7123   -1.8931   25.1667 C.3     1  UNL1        0.0000
     22 C           4.1003   -1.1474   26.3516 C.3     1  UNL1        0.0000
     23 C           3.1560   -0.0663   25.8303 C.3     1  UNL1        0.0000
     24 C           3.3514   -2.0954   27.2824 C.3     1  UNL1        0.0000
     25 C           5.1306    1.1048   22.6802 C.3     1  UNL1        0.0000
     26 C           5.3273    0.4133   21.3319 C.3     1  UNL1        0.0000
     27 C           6.4547    1.7053   23.1496 C.3     1  UNL1        0.0000
     28 C          -1.2698    5.3684   29.3213 C.3     1  UNL1        0.0000
     29 C          -2.2327    5.9894   26.4920 C.3     1  UNL1        0.0000
     30 C          -0.7129    8.2490   28.0971 C.3     1  UNL1        0.0000
     31 C           0.3087    8.5506   29.1959 C.3     1  UNL1        0.0000
     32 C          -2.0805    8.7503   28.5599 C.3     1  UNL1        0.0000
     33 C          -0.3064    9.0219   26.8393 C.3     1  UNL1        0.0000
     34 H           3.7581    2.6858   26.8001 H       1  UNL1        0.0000
     35 H           1.5211    2.6217   22.6216 H       1  UNL1        0.0000
     36 H          -0.0030    4.1887   21.4654 H       1  UNL1        0.0000
     37 H          -0.7773    6.2244   22.6294 H       1  UNL1        0.0000
     38 H          -0.1532    6.6272   24.9662 H       1  UNL1        0.0000
     39 H           4.5910    4.1466   29.8036 H       1  UNL1        0.0000
     40 H           4.9759    3.7475   28.1425 H       1  UNL1        0.0000
     41 H           3.7844    2.7800   29.0463 H       1  UNL1        0.0000
     42 H           1.3467    5.6231   29.4509 H       1  UNL1        0.0000
     43 H           2.5972    5.0182   30.5272 H       1  UNL1        0.0000
     44 H           1.5155    3.8826   29.7134 H       1  UNL1        0.0000
     45 H           4.1377    6.4947   29.0607 H       1  UNL1        0.0000
     46 H           2.8832    6.8208   27.8623 H       1  UNL1        0.0000
     47 H           4.3960    6.0565   27.3690 H       1  UNL1        0.0000
     48 H           4.6857    1.4200   25.4351 H       1  UNL1        0.0000
     49 H           3.6520   -0.3501   23.1947 H       1  UNL1        0.0000
     50 H           5.8700   -1.4760   23.4023 H       1  UNL1        0.0000
     51 H           6.2516   -0.4504   24.7886 H       1  UNL1        0.0000
     52 H           5.4129   -2.6494   25.5266 H       1  UNL1        0.0000
     53 H           3.9198   -2.4056   24.6175 H       1  UNL1        0.0000
     54 H           4.9089   -0.6667   26.9158 H       1  UNL1        0.0000
     55 H           2.3397   -0.5324   25.2754 H       1  UNL1        0.0000
     56 H           2.7100    0.4747   26.6690 H       1  UNL1        0.0000
     57 H           4.0230   -2.8541   27.6773 H       1  UNL1        0.0000
     58 H           2.5458   -2.5918   26.7471 H       1  UNL1        0.0000
     59 H           2.9171   -1.5479   28.1152 H       1  UNL1        0.0000
     60 H           4.4202    1.9255   22.5330 H       1  UNL1        0.0000
     61 H           6.0495   -0.3956   21.4104 H       1  UNL1        0.0000
     62 H           5.6974    1.1245   20.5968 H       1  UNL1        0.0000
     63 H           4.3885    0.0032   20.9673 H       1  UNL1        0.0000
     64 H           6.7829    2.4646   22.4428 H       1  UNL1        0.0000
     65 H           7.2289    0.9445   23.2082 H       1  UNL1        0.0000
     66 H           6.3545    2.1775   24.1240 H       1  UNL1        0.0000
     67 H          -2.3449    5.3370   29.4632 H       1  UNL1        0.0000
     68 H          -0.8407    5.7885   30.2255 H       1  UNL1        0.0000
     69 H          -0.9290    4.3397   29.2406 H       1  UNL1        0.0000
     70 H          -3.1791    5.8791   27.0114 H       1  UNL1        0.0000
     71 H          -2.0518    5.0579   25.9632 H       1  UNL1        0.0000
     72 H          -2.3667    6.7696   25.7484 H       1  UNL1        0.0000
     73 H           0.0328    8.0633   30.1276 H       1  UNL1        0.0000
     74 H           0.3600    9.6236   29.3794 H       1  UNL1        0.0000
     75 H           1.2995    8.2096   28.9078 H       1  UNL1        0.0000
     76 H          -2.3930    8.2322   29.4626 H       1  UNL1        0.0000
     77 H          -2.8343    8.5835   27.7953 H       1  UNL1        0.0000
     78 H          -2.0432    9.8177   28.7745 H       1  UNL1        0.0000
     79 H           0.6616    8.6837   26.4759 H       1  UNL1        0.0000
     80 H          -0.2332   10.0873   27.0561 H       1  UNL1        0.0000
     81 H          -1.0405    8.8921   26.0469 H       1  UNL1        0.0000
@<TRIPOS>BOND
     1    62    26    1
     2    63    26    1
     3    26    61    1
     4    26    25    1
     5    36    10    1
     6    64    27    1
     7    10     9   ar
     8    10    11   ar
     9    60    25    1
    10    35     9    1
    11    37    11    1
    12    25    27    1
    13    25    19    1
    14     9     8   ar
    15    27    65    1
    16    27    66    1
    17    11    12   ar
    18    49    19    1
    19    50    20    1
    20    19    20    1
    21    19    18    1
    22    20    51    1
    23    20    21    1
    24     2    18    1
    25     2     7    1
    26    12    38    1
    27    12    13   ar
    28     8     7    1
    29     8    13   ar
    30    53    21    1
    31    18    48    1
    32    18    23    1
    33     7     6    1
    34    21    52    1
    35    21    22    1
    36    13     4    1
    37    55    23    1
    38    72    29    1
    39    23    22    1
    40    23    56    1
    41    71    29    1
    42    81    33    1
    43    22    54    1
    44    22    24    1
    45     6    34    1
    46     6     5    1
    47    79    33    1
    48    29    70    1
    49    29     1    1
    50     4     5    1
    51     4     3    1
    52    58    24    1
    53    33    80    1
    54    33    30    1
    55     5    14    1
    56     3     1    1
    57    24    57    1
    58    24    59    1
    59    47    17    1
    60     1    30    1
    61     1    28    1
    62    77    32    1
    63    46    17    1
    64    30    32    1
    65    30    31    1
    66    40    15    1
    67    17    14    1
    68    17    45    1
    69    14    15    1
    70    14    16    1
    71    32    78    1
    72    32    76    1
    73    15    41    1
    74    15    39    1
    75    75    31    1
    76    31    74    1
    77    31    73    1
    78    69    28    1
    79    28    67    1
    80    28    68    1
    81    42    16    1
    82    16    44    1
    83    16    43    1
