@<TRIPOS>MOLECULE
1,4,8,13
 57 58 0 0 0
SMALL
GASTEIGER

@<TRIPOS>ATOM
      1 P           3.2521   12.3523    6.8597 P.3     1  UNL1        0.0000
      2 P           4.2620   11.5409    4.5507 P.3     1  UNL1        0.0000
      3 SI          5.9047   10.5710    1.7691 Si      1  UNL1        0.0000
      4 O           6.7266   11.8463    5.3805 O.3     1  UNL1        0.0000
      5 N           6.7286   11.0999    3.2479 N.pl3   1  UNL1        0.0000
      6 C           6.1081   11.4881    4.3698 C.3     1  UNL1        0.0000
      7 C           8.1549   11.1251    3.2898 C.ar    1  UNL1        0.0000
      8 C           4.2120   13.1079    5.5442 C.3     1  UNL1        0.0000
      9 C           8.8355   12.2765    2.9263 C.ar    1  UNL1        0.0000
     10 H           8.2773   13.1447    2.6077 H       1  UNL1        0.0000
     11 C           8.8522   10.0058    3.7163 C.ar    1  UNL1        0.0000
     12 H           8.3067    9.1201    4.0077 H       1  UNL1        0.0000
     13 C           4.2205   10.9448    6.3078 C.3     1  UNL1        0.0000
     14 C           3.9889    9.4913    6.6481 C.3     1  UNL1        0.0000
     15 C          10.2343   10.0384    3.7716 C.ar    1  UNL1        0.0000
     16 H          10.7767    9.1671    4.1071 H       1  UNL1        0.0000
     17 C           2.7559   14.3393    3.9679 C.3     1  UNL1        0.0000
     18 H           2.9317   13.5957    3.1910 H       1  UNL1        0.0000
     19 H           2.5541   15.2961    3.4899 H       1  UNL1        0.0000
     20 H           1.8761   14.0385    4.5359 H       1  UNL1        0.0000
     21 C           3.9707   14.4514    4.8969 C.3     1  UNL1        0.0000
     22 C           4.8380   11.9963    1.0980 C.3     1  UNL1        0.0000
     23 H           4.0326   12.2444    1.7835 H       1  UNL1        0.0000
     24 H           4.3861   11.7195    0.1509 H       1  UNL1        0.0000
     25 H           5.4231   12.8968    0.9314 H       1  UNL1        0.0000
     26 C           2.7766    8.9877    5.8558 C.3     1  UNL1        0.0000
     27 H           1.8926    9.5708    6.1123 H       1  UNL1        0.0000
     28 H           2.5833    7.9407    6.0825 H       1  UNL1        0.0000
     29 H           2.9493    9.0825    4.7840 H       1  UNL1        0.0000
     30 C           5.2367    8.6975    6.2518 C.3     1  UNL1        0.0000
     31 H           5.4496    8.8440    5.1915 H       1  UNL1        0.0000
     32 H           5.0963    7.6343    6.4369 H       1  UNL1        0.0000
     33 H           6.0941    9.0444    6.8270 H       1  UNL1        0.0000
     34 C           3.6892   15.5195    5.9512 C.3     1  UNL1        0.0000
     35 H           2.7850   15.2695    6.5044 H       1  UNL1        0.0000
     36 H           3.5524   16.4914    5.4816 H       1  UNL1        0.0000
     37 H           4.5198   15.5859    6.6521 H       1  UNL1        0.0000
     38 C          10.2177   12.3031    2.9836 C.ar    1  UNL1        0.0000
     39 H          10.7472   13.2015    2.7034 H       1  UNL1        0.0000
     40 C           4.8811    9.0126    2.1484 C.3     1  UNL1        0.0000
     41 H           5.4901    8.2236    2.5810 H       1  UNL1        0.0000
     42 H           4.4335    8.6200    1.2415 H       1  UNL1        0.0000
     43 H           4.0747    9.2289    2.8435 H       1  UNL1        0.0000
     44 C           5.2135   14.8274    4.0856 C.3     1  UNL1        0.0000
     45 H           6.0724   14.9246    4.7483 H       1  UNL1        0.0000
     46 H           5.0654   15.7697    3.5617 H       1  UNL1        0.0000
     47 H           5.4290   14.0484    3.3524 H       1  UNL1        0.0000
     48 C          10.9177   11.1853    3.4049 C.ar    1  UNL1        0.0000
     49 H          11.9962   11.2093    3.4511 H       1  UNL1        0.0000
     50 C           7.3080   10.1671    0.5538 C.3     1  UNL1        0.0000
     51 H           7.9346   11.0316    0.3584 H       1  UNL1        0.0000
     52 H           6.8970    9.8373   -0.3941 H       1  UNL1        0.0000
     53 H           7.9517    9.3769    0.9268 H       1  UNL1        0.0000
     54 C           3.7095    9.3204    8.1395 C.3     1  UNL1        0.0000
     55 H           4.5402    9.7092    8.7262 H       1  UNL1        0.0000
     56 H           3.5743    8.2686    8.3834 H       1  UNL1        0.0000
     57 H           2.8049    9.8607    8.4148 H       1  UNL1        0.0000
@<TRIPOS>BOND
     1    52    50    1
     2    24    22    1
     3    51    50    1
     4    50    53    1
     5    50     3    1
     6    25    22    1
     7    22     3    1
     8    22    23    1
     9    42    40    1
    10     3    40    1
    11     3     5    1
    12    40    41    1
    13    40    43    1
    14    10     9    1
    15    39    38    1
    16     9    38   ar
    17     9     7   ar
    18    38    48   ar
    19    18    17    1
    20     5     7    1
    21     5     6    1
    22     7    11   ar
    23    47    44    1
    24    48    49    1
    25    48    15   ar
    26    19    17    1
    27    46    44    1
    28    11    15   ar
    29    11    12    1
    30    15    16    1
    31    17    20    1
    32    17    21    1
    33    44    45    1
    34    44    21    1
    35     6     2    1
    36     6     4    1
    37     2     8    1
    38     2    13    1
    39    29    26    1
    40    21     8    1
    41    21    34    1
    42    31    30    1
    43    36    34    1
    44     8     1    1
    45    26    28    1
    46    26    27    1
    47    26    14    1
    48    34    35    1
    49    34    37    1
    50    30    32    1
    51    30    14    1
    52    30    33    1
    53    13    14    1
    54    13     1    1
    55    14    54    1
    56    54    56    1
    57    54    57    1
    58    54    55    1
