@<TRIPOS>MOLECULE
1,2,3
 61 62 0 0 0
SMALL
GASTEIGER

@<TRIPOS>ATOM
      1 P           1.5923    2.7103    6.3995 P.3     1  UNL1        0.0000
      2 SI          1.6417   -0.3575    7.0565 Si      1  UNL1        0.0000
      3 N          -1.0740   -0.8079    5.8381 N.pl3   1  UNL1        0.0000
      4 C           2.9908   -1.5044    6.2788 C.3     1  UNL1        0.0000
      5 H           3.9917   -1.1548    6.5079 H       1  UNL1        0.0000
      6 H           2.8924   -1.5379    5.1988 H       1  UNL1        0.0000
      7 H           2.8881   -2.5175    6.6559 H       1  UNL1        0.0000
      8 C           2.4782    0.8763    8.2624 C.ar    1  UNL1        0.0000
      9 C           2.4128    2.2433    7.9691 C.ar    1  UNL1        0.0000
     10 C           2.9913    3.1607    8.8370 C.ar    1  UNL1        0.0000
     11 H           2.9439    4.2182    8.6243 H       1  UNL1        0.0000
     12 C           3.6317    2.7335    9.9886 C.ar    1  UNL1        0.0000
     13 H           4.0698    3.4571   10.6612 H       1  UNL1        0.0000
     14 C           3.7154    1.3818   10.2708 C.ar    1  UNL1        0.0000
     15 H           4.2218    1.0448   11.1638 H       1  UNL1        0.0000
     16 C           3.1432    0.4640    9.4054 C.ar    1  UNL1        0.0000
     17 H           3.2134   -0.5909    9.6266 H       1  UNL1        0.0000
     18 C           0.2620   -1.4844    7.7723 C.ar    1  UNL1        0.0000
     19 C          -0.9625   -1.5125    7.1022 C.ar    1  UNL1        0.0000
     20 C          -2.0132   -2.2601    7.6121 C.ar    1  UNL1        0.0000
     21 H          -2.9664   -2.2973    7.1061 H       1  UNL1        0.0000
     22 C          -1.8562   -2.9709    8.7914 C.ar    1  UNL1        0.0000
     23 H          -2.6857   -3.5402    9.1849 H       1  UNL1        0.0000
     24 C          -0.6439   -2.9557    9.4550 C.ar    1  UNL1        0.0000
     25 H          -0.5197   -3.5120   10.3723 H       1  UNL1        0.0000
     26 C           0.4062   -2.2148    8.9389 C.ar    1  UNL1        0.0000
     27 H           1.3516   -2.1931    9.4590 H       1  UNL1        0.0000
     28 C           3.1028    3.1225    5.3231 C.3     1  UNL1        0.0000
     29 C           3.8067    1.7799    5.1175 C.3     1  UNL1        0.0000
     30 H           4.1410    1.3684    6.0686 H       1  UNL1        0.0000
     31 H           4.6761    1.9125    4.4751 H       1  UNL1        0.0000
     32 H           3.1362    1.0704    4.6404 H       1  UNL1        0.0000
     33 C           2.6242    3.6398    3.9683 C.3     1  UNL1        0.0000
     34 H           2.1939    4.6362    4.0377 H       1  UNL1        0.0000
     35 H           1.8844    2.9593    3.5516 H       1  UNL1        0.0000
     36 H           3.4634    3.6863    3.2750 H       1  UNL1        0.0000
     37 C           4.1072    4.0884    5.9496 C.3     1  UNL1        0.0000
     38 H           4.4995    3.6909    6.8827 H       1  UNL1        0.0000
     39 H           3.6883    5.0717    6.1314 H       1  UNL1        0.0000
     40 H           4.9439    4.2082    5.2611 H       1  UNL1        0.0000
     41 C           0.5334    4.2633    6.7151 C.3     1  UNL1        0.0000
     42 C          -0.1230    4.1191    8.0893 C.3     1  UNL1        0.0000
     43 H          -0.5501    3.1257    8.2063 H       1  UNL1        0.0000
     44 H          -0.9214    4.8529    8.1962 H       1  UNL1        0.0000
     45 H           0.5940    4.2750    8.8911 H       1  UNL1        0.0000
     46 C          -0.5444    4.1719    5.6267 C.3     1  UNL1        0.0000
     47 H          -0.1151    4.3261    4.6381 H       1  UNL1        0.0000
     48 H          -1.3228    4.9177    5.7870 H       1  UNL1        0.0000
     49 H          -1.0127    3.1751    5.6454 H       1  UNL1        0.0000
     50 C           1.2000    5.6356    6.6408 C.3     1  UNL1        0.0000
     51 H           1.6391    5.8247    5.6654 H       1  UNL1        0.0000
     52 H           1.9626    5.7568    7.4058 H       1  UNL1        0.0000
     53 H           0.4403    6.3996    6.8125 H       1  UNL1        0.0000
     54 C          -0.7449   -1.7786    4.7879 C.3     1  UNL1        0.0000
     55 H          -0.7425   -1.2879    3.8154 H       1  UNL1        0.0000
     56 H          -1.4754   -2.5975    4.7797 H       1  UNL1        0.0000
     57 H           0.2469   -2.1892    4.9677 H       1  UNL1        0.0000
     58 C          -2.4070   -0.2563    5.5763 C.3     1  UNL1        0.0000
     59 H          -2.3420    0.4264    4.7224 H       1  UNL1        0.0000
     60 H          -2.7600    0.2920    6.4511 H       1  UNL1        0.0000
     61 H          -3.1375   -1.0349    5.3226 H       1  UNL1        0.0000
@<TRIPOS>BOND
     1    36    33    1
     2    35    33    1
     3    55    54    1
     4    33    34    1
     5    33    28    1
     6    31    29    1
     7    47    46    1
     8    32    29    1
     9    59    58    1
    10    56    54    1
    11    54    57    1
    12    54     3    1
    13    29    28    1
    14    29    30    1
    15     6     4    1
    16    40    37    1
    17    61    58    1
    18    28    37    1
    19    28     1    1
    20    58     3    1
    21    58    60    1
    22    46    49    1
    23    46    48    1
    24    46    41    1
    25    51    50    1
    26     3    19    1
    27    37    39    1
    28    37    38    1
    29     4     5    1
    30     4     7    1
    31     4     2    1
    32     1    41    1
    33     1     9    1
    34    50    41    1
    35    50    53    1
    36    50    52    1
    37    41    42    1
    38     2    18    1
    39     2     8    1
    40    19    20   ar
    41    19    18   ar
    42    21    20    1
    43    20    22   ar
    44    18    26   ar
    45     9     8   ar
    46     9    10   ar
    47    42    44    1
    48    42    43    1
    49    42    45    1
    50     8    16   ar
    51    11    10    1
    52    22    23    1
    53    22    24   ar
    54    10    12   ar
    55    26    24   ar
    56    26    27    1
    57    16    17    1
    58    16    14   ar
    59    24    25    1
    60    12    14   ar
    61    12    13    1
    62    14    15    1
