@<TRIPOS>MOLECULE
1,2,3
 61 62 0 0 0
SMALL
GASTEIGER

@<TRIPOS>ATOM
      1 P           1.5797    2.7598    6.4092 P.3     1  UNL1        0.0000
      2 SI          1.6047   -0.3261    7.1105 Si      1  UNL1        0.0000
      3 N          -1.0379   -0.8989    5.8170 N.pl3   1  UNL1        0.0000
      4 C           2.9900   -1.4772    6.4001 C.3     1  UNL1        0.0000
      5 H           3.9789   -1.1570    6.7120 H       1  UNL1        0.0000
      6 H           2.9739   -1.4779    5.3154 H       1  UNL1        0.0000
      7 H           2.8444   -2.5001    6.7351 H       1  UNL1        0.0000
      8 C           2.4614    0.9173    8.3001 C.ar    1  UNL1        0.0000
      9 C           2.4256    2.2788    7.9713 C.ar    1  UNL1        0.0000
     10 C           3.0476    3.1988    8.8068 C.ar    1  UNL1        0.0000
     11 H           3.0334    4.2507    8.5675 H       1  UNL1        0.0000
     12 C           3.6942    2.7859    9.9603 C.ar    1  UNL1        0.0000
     13 H           4.1658    3.5152   10.6032 H       1  UNL1        0.0000
     14 C           3.7393    1.4415   10.2817 C.ar    1  UNL1        0.0000
     15 H           4.2473    1.1143   11.1773 H       1  UNL1        0.0000
     16 C           3.1292    0.5195    9.4476 C.ar    1  UNL1        0.0000
     17 H           3.1725   -0.5307    9.6948 H       1  UNL1        0.0000
     18 C           0.2475   -1.4877    7.8161 C.ar    1  UNL1        0.0000
     19 C          -0.9493   -1.5762    7.0989 C.ar    1  UNL1        0.0000
     20 C          -1.9896   -2.3532    7.5844 C.ar    1  UNL1        0.0000
     21 H          -2.9207   -2.4384    7.0445 H       1  UNL1        0.0000
     22 C          -1.8530   -3.0364    8.7827 C.ar    1  UNL1        0.0000
     23 H          -2.6754   -3.6308    9.1532 H       1  UNL1        0.0000
     24 C          -0.6704   -2.9612    9.4932 C.ar    1  UNL1        0.0000
     25 H          -0.5618   -3.4956   10.4255 H       1  UNL1        0.0000
     26 C           0.3698   -2.1891    9.0033 C.ar    1  UNL1        0.0000
     27 H           1.2918   -2.1200    9.5594 H       1  UNL1        0.0000
     28 C           3.0707    3.1225    5.2873 C.3     1  UNL1        0.0000
     29 C           3.7093    1.7545    5.0421 C.3     1  UNL1        0.0000
     30 H           4.0394    1.3088    5.9783 H       1  UNL1        0.0000
     31 H           4.5717    1.8604    4.3854 H       1  UNL1        0.0000
     32 H           2.9985    1.0864    4.5658 H       1  UNL1        0.0000
     33 C           2.5678    3.6769    3.9569 C.3     1  UNL1        0.0000
     34 H           2.1747    4.6863    4.0536 H       1  UNL1        0.0000
     35 H           1.7913    3.0293    3.5565 H       1  UNL1        0.0000
     36 H           3.3842    3.7037    3.2358 H       1  UNL1        0.0000
     37 C           4.1361    4.0370    5.8894 C.3     1  UNL1        0.0000
     38 H           4.5396    3.6120    6.8051 H       1  UNL1        0.0000
     39 H           3.7664    5.0354    6.0937 H       1  UNL1        0.0000
     40 H           4.9543    4.1283    5.1749 H       1  UNL1        0.0000
     41 C           0.5973    4.3537    6.7748 C.3     1  UNL1        0.0000
     42 C          -0.0358    4.1942    8.1580 C.3     1  UNL1        0.0000
     43 H          -0.4743    3.2043    8.2588 H       1  UNL1        0.0000
     44 H          -0.8198    4.9382    8.2933 H       1  UNL1        0.0000
     45 H           0.6973    4.3224    8.9494 H       1  UNL1        0.0000
     46 C          -0.5097    4.3531    5.7152 C.3     1  UNL1        0.0000
     47 H          -0.0954    4.4529    4.7142 H       1  UNL1        0.0000
     48 H          -1.2038    5.1758    5.8848 H       1  UNL1        0.0000
     49 H          -1.0690    3.4165    5.7639 H       1  UNL1        0.0000
     50 C           1.3269    5.6949    6.7165 C.3     1  UNL1        0.0000
     51 H           1.7386    5.8915    5.7307 H       1  UNL1        0.0000
     52 H           2.1207    5.7627    7.4550 H       1  UNL1        0.0000
     53 H           0.6096    6.4867    6.9363 H       1  UNL1        0.0000
     54 C          -0.5766   -1.8541    4.8041 C.3     1  UNL1        0.0000
     55 H          -0.5231   -1.3659    3.8324 H       1  UNL1        0.0000
     56 H          -1.2584   -2.7113    4.7398 H       1  UNL1        0.0000
     57 H           0.4169   -2.2122    5.0643 H       1  UNL1        0.0000
     58 C          -2.3879   -0.4534    5.4674 C.3     1  UNL1        0.0000
     59 H          -2.3268    0.1927    4.5892 H       1  UNL1        0.0000
     60 H          -2.8187    0.1072    6.2965 H       1  UNL1        0.0000
     61 H          -3.0532   -1.2880    5.2137 H       1  UNL1        0.0000
@<TRIPOS>BOND
     1    36    33    1
     2    35    33    1
     3    55    54    1
     4    33    34    1
     5    33    28    1
     6    31    29    1
     7    32    29    1
     8    59    58    1
     9    47    46    1
    10    56    54    1
    11    54    57    1
    12    54     3    1
    13    29    28    1
    14    29    30    1
    15    40    37    1
    16    61    58    1
    17    28    37    1
    18    28     1    1
    19     6     4    1
    20    58     3    1
    21    58    60    1
    22    46    49    1
    23    46    48    1
    24    46    41    1
    25    51    50    1
    26     3    19    1
    27    37    39    1
    28    37    38    1
    29     4     5    1
    30     4     7    1
    31     4     2    1
    32     1    41    1
    33     1     9    1
    34    50    41    1
    35    50    53    1
    36    50    52    1
    37    41    42    1
    38    21    20    1
    39    19    20   ar
    40    19    18   ar
    41     2    18    1
    42     2     8    1
    43    20    22   ar
    44    18    26   ar
    45     9     8   ar
    46     9    10   ar
    47    42    43    1
    48    42    44    1
    49    42    45    1
    50     8    16   ar
    51    11    10    1
    52    22    23    1
    53    22    24   ar
    54    10    12   ar
    55    26    24   ar
    56    26    27    1
    57    16    17    1
    58    16    14   ar
    59    24    25    1
    60    12    14   ar
    61    12    13    1
    62    14    15    1
