@<TRIPOS>MOLECULE
3,12,13,25
 46 54 0 0 0
SMALL
GASTEIGER

@<TRIPOS>ATOM
      1 SI         11.7571    0.8942   12.8006 Si      1  UNL1        0.0000
      2 C          13.1440    1.9127   13.6124 C.3     1  UNL1        0.0000
      3 C          12.6854    3.3633   14.1847 C.3     1  UNL1        0.0000
      4 C          12.2601    0.3531   11.0345 C.3     1  UNL1        0.0000
      5 H          11.3873    0.0651   10.4572 H       1  UNL1        0.0000
      6 H          12.9243   -0.5043   11.0726 H       1  UNL1        0.0000
      7 H          12.7765    1.1366   10.4903 H       1  UNL1        0.0000
      8 C          11.4250   -0.7088   13.7968 C.3     1  UNL1        0.0000
      9 H          10.5689   -1.2396   13.3925 H       1  UNL1        0.0000
     10 H          11.2255   -0.5107   14.8448 H       1  UNL1        0.0000
     11 H          12.2761   -1.3796   13.7507 H       1  UNL1        0.0000
     12 C          10.2537    2.0031   12.8659 C.3     1  UNL1        0.0000
     13 C           9.2905    2.0039   13.9213 C.2     1  UNL1        0.0000
     14 H           9.3168    1.3319   14.7738 H       1  UNL1        0.0000
     15 C           8.2365    2.8686   13.6138 C.2     1  UNL1        0.0000
     16 H           7.3119    2.9745   14.1643 H       1  UNL1        0.0000
     17 C           7.7456    4.2907   11.5124 C.ar    1  UNL1        0.0000
     18 H           6.7963    4.6827   11.8555 H       1  UNL1        0.0000
     19 C           8.2349    4.6225   10.2730 C.ar    1  UNL1        0.0000
     20 H           7.6708    5.2846    9.6306 H       1  UNL1        0.0000
     21 C           9.4551    4.1033    9.8130 C.ar    1  UNL1        0.0000
     22 H           9.8012    4.3783    8.8265 H       1  UNL1        0.0000
     23 C          10.2062    3.2495   10.5845 C.ar    1  UNL1        0.0000
     24 H          11.1336    2.8456   10.2036 H       1  UNL1        0.0000
     25 C           9.7420    2.8894   11.8610 C.ar    1  UNL1        0.0000
     26 C           8.4875    3.4232   12.3298 C.ar    1  UNL1        0.0000
     27 B          13.6632    3.3017   12.7749 B       1  UNL1        0.0000
     28 H          13.1332    3.5588   11.7490 H       1  UNL1        0.0000
     29 B          14.7463    1.9224   13.0092 B       1  UNL1        0.0000
     30 H          14.9917    1.2262   12.0928 H       1  UNL1        0.0000
     31 B          14.3634    1.1898   14.5671 B       1  UNL1        0.0000
     32 H          14.3586    0.0172   14.6667 H       1  UNL1        0.0000
     33 B          13.0442    2.1225   15.3003 B       1  UNL1        0.0000
     34 H          12.1218    1.6359   15.8667 H       1  UNL1        0.0000
     35 B          13.9977    4.4772   14.0320 B       1  UNL1        0.0000
     36 H          13.7224    5.6120   13.8379 H       1  UNL1        0.0000
     37 B          15.3344    3.5731   13.2797 B       1  UNL1        0.0000
     38 H          16.1199    4.0828   12.5654 H       1  UNL1        0.0000
     39 B          15.7764    2.2499   14.4085 B       1  UNL1        0.0000
     40 H          16.8751    1.8313   14.4785 H       1  UNL1        0.0000
     41 B          14.7155    2.3594   15.8460 B       1  UNL1        0.0000
     42 H          15.0637    2.0309   16.9224 H       1  UNL1        0.0000
     43 B          13.6416    3.7421   15.5852 B       1  UNL1        0.0000
     44 H          13.1534    4.3865   16.4485 H       1  UNL1        0.0000
     45 B          15.3222    3.8461   15.0445 B       1  UNL1        0.0000
     46 H          16.0967    4.5613   15.5710 H       1  UNL1        0.0000
@<TRIPOS>BOND
     1    22    21    1
     2    20    19    1
     3    21    19   ar
     4    21    23   ar
     5    24    23    1
     6    19    17   ar
     7     5     4    1
     8     7     4    1
     9    23    25   ar
    10     4     6    1
    11     4     1    1
    12    17    18    1
    13    17    26   ar
    14    28    27    1
    15    25    26   ar
    16    25    12    1
    17    30    29    1
    18    26    15    1
    19    38    37    1
    20    27     2    1
    21    27    35    1
    22    27     3    1
    23     1    12    1
    24     1     8    1
    25    12    13    1
    26    29    37    1
    27    29    39    1
    28    29    31    1
    29    37    45    1
    30     9     8    1
    31     2     3    1
    32     2    31    1
    33     2    33    1
    34    15    13    2
    35    15    16    1
    36    11     8    1
    37     8    10    1
    38    36    35    1
    39    13    14    1
    40    35     3    1
    41    35    43    1
    42     3    33    1
    43    39    40    1
    44    39    45    1
    45    39    41    1
    46    31    32    1
    47    31    41    1
    48    45    46    1
    49    45    43    1
    50    33    43    1
    51    33    34    1
    52    43    44    1
    53    41    42    1
    54     1     2    0
