@<TRIPOS>MOLECULE
1,18,19
 74 76 0 0 0
SMALL
GASTEIGER

@<TRIPOS>ATOM
      1 S          10.9584    2.0518   18.5577 S.3     1  UNL1        0.0000
      2 S          14.2643    1.0156   18.5027 S.3     1  UNL1        0.0000
      3 S          12.2534    5.0712   18.4106 S.3     1  UNL1        0.0000
      4 SI         12.9640    2.7646   16.0879 Si      1  UNL1        0.0000
      5 SI          9.7638   -0.7273   19.1884 Si      1  UNL1        0.0000
      6 SI         16.9603    1.6698   20.0775 Si      1  UNL1        0.0000
      7 SI          9.9353    7.0946   18.2753 Si      1  UNL1        0.0000
      8 C          13.8549    2.7081   14.3836 C.3     1  UNL1        0.0000
      9 C          11.2329    0.8329   17.3633 C.ar    1  UNL1        0.0000
     10 C          12.0546    1.0968   16.2582 C.ar    1  UNL1        0.0000
     11 C          12.2174    0.0937   15.3153 C.ar    1  UNL1        0.0000
     12 C          11.5739   -1.1262   15.4425 C.ar    1  UNL1        0.0000
     13 C          10.7920   -1.3771   16.5562 C.ar    1  UNL1        0.0000
     14 C          10.6200   -0.4138   17.5384 C.ar    1  UNL1        0.0000
     15 C          11.0194   -0.5619   20.6224 C.3     1  UNL1        0.0000
     16 C           8.1893    0.3196   19.4801 C.3     1  UNL1        0.0000
     17 C           9.1545   -2.5475   19.2097 C.3     1  UNL1        0.0000
     18 C          15.0745    2.4978   18.1430 C.3     1  UNL1        0.0000
     19 C          14.4775    3.3477   17.1697 C.3     1  UNL1        0.0000
     20 C          15.0811    4.5775   16.9012 C.2     1  UNL1        0.0000
     21 C          16.2244    4.9579   17.5693 C.2     1  UNL1        0.0000
     22 C          16.7944    4.1169   18.5245 C.2     1  UNL1        0.0000
     23 C          16.2369    2.8913   18.8356 C.2     1  UNL1        0.0000
     24 C          15.8015    1.2019   21.5247 C.3     1  UNL1        0.0000
     25 C          17.5710    0.0976   19.1773 C.3     1  UNL1        0.0000
     26 C          18.5049    2.4805   20.8739 C.3     1  UNL1        0.0000
     27 C          11.3605    5.0566   16.9382 C.ar    1  UNL1        0.0000
     28 C          11.6453    4.1299   15.9256 C.ar    1  UNL1        0.0000
     29 C          10.8990    4.1942   14.7576 C.ar    1  UNL1        0.0000
     30 C           9.9125    5.1469   14.5765 C.ar    1  UNL1        0.0000
     31 C           9.6368    6.0450   15.5949 C.ar    1  UNL1        0.0000
     32 C          10.3409    6.0115   16.7865 C.ar    1  UNL1        0.0000
     33 C           9.4081    6.0395   19.7837 C.3     1  UNL1        0.0000
     34 C          11.3248    8.3313   18.7335 C.3     1  UNL1        0.0000
     35 C           8.4273    8.1940   17.8330 C.3     1  UNL1        0.0000
     36 H          14.6668    1.9890   14.3834 H       1  UNL1        0.0000
     37 H          13.1647    2.4370   13.5945 H       1  UNL1        0.0000
     38 H          14.2721    3.6778   14.1365 H       1  UNL1        0.0000
     39 H          12.8567    0.2678   14.4626 H       1  UNL1        0.0000
     40 H          11.7030   -1.8871   14.6830 H       1  UNL1        0.0000
     41 H          10.3219   -2.3438   16.6741 H       1  UNL1        0.0000
     42 H          10.5875   -0.0365   21.4689 H       1  UNL1        0.0000
     43 H          11.3646   -1.5319   20.9688 H       1  UNL1        0.0000
     44 H          11.8865    0.0011   20.2915 H       1  UNL1        0.0000
     45 H           8.4317    1.3753   19.5038 H       1  UNL1        0.0000
     46 H           7.4645    0.1636   18.6863 H       1  UNL1        0.0000
     47 H           7.7124    0.0576   20.4208 H       1  UNL1        0.0000
     48 H           8.6873   -2.7769   20.1622 H       1  UNL1        0.0000
     49 H           8.4197   -2.7358   18.4336 H       1  UNL1        0.0000
     50 H           9.9728   -3.2463   19.0703 H       1  UNL1        0.0000
     51 H          14.6393    5.2334   16.1631 H       1  UNL1        0.0000
     52 H          16.6832    5.9140   17.3550 H       1  UNL1        0.0000
     53 H          17.6924    4.4344   19.0360 H       1  UNL1        0.0000
     54 H          15.9603    0.1691   21.8203 H       1  UNL1        0.0000
     55 H          15.9674    1.8253   22.3999 H       1  UNL1        0.0000
     56 H          14.7631    1.2958   21.2274 H       1  UNL1        0.0000
     57 H          16.7338   -0.4209   18.7231 H       1  UNL1        0.0000
     58 H          18.2780    0.3418   18.3891 H       1  UNL1        0.0000
     59 H          18.0609   -0.5882   19.8631 H       1  UNL1        0.0000
     60 H          18.9399    1.8120   21.6097 H       1  UNL1        0.0000
     61 H          19.2710    2.6948   20.1363 H       1  UNL1        0.0000
     62 H          18.2616    3.4097   21.3795 H       1  UNL1        0.0000
     63 H          11.0969    3.4761   13.9744 H       1  UNL1        0.0000
     64 H           9.3487    5.1780   13.6529 H       1  UNL1        0.0000
     65 H           8.8502    6.7759   15.4650 H       1  UNL1        0.0000
     66 H           9.9972    6.2819   20.6627 H       1  UNL1        0.0000
     67 H           8.3601    6.1839   20.0311 H       1  UNL1        0.0000
     68 H           9.5598    4.9859   19.5718 H       1  UNL1        0.0000
     69 H          12.2535    7.8083   18.9296 H       1  UNL1        0.0000
     70 H          11.5036    9.0347   17.9252 H       1  UNL1        0.0000
     71 H          11.0649    8.9043   19.6196 H       1  UNL1        0.0000
     72 H           8.1569    8.8204   18.6771 H       1  UNL1        0.0000
     73 H           8.6380    8.8505   16.9951 H       1  UNL1        0.0000
     74 H           7.5586    7.5963   17.5775 H       1  UNL1        0.0000
@<TRIPOS>BOND
     1    37     8    1
     2    64    30    1
     3    63    29    1
     4    38     8    1
     5    36     8    1
     6     8     4    1
     7    39    11    1
     8    30    29   ar
     9    30    31   ar
    10    40    12    1
    11    29    28   ar
    12    11    12   ar
    13    11    10   ar
    14    12    13   ar
    15    65    31    1
    16    31    32   ar
    17    28     4    1
    18    28    27   ar
    19     4    10    1
    20     4    19    1
    21    51    20    1
    22    10     9   ar
    23    13    41    1
    24    13    14   ar
    25    32    27   ar
    26    32     7    1
    27    20    19    1
    28    20    21    2
    29    27     3    1
    30    73    35    1
    31    19    18    1
    32    52    21    1
    33     9    14   ar
    34     9     1    1
    35    14     5    1
    36    21    22    1
    37    74    35    1
    38    35     7    1
    39    35    72    1
    40    70    34    1
    41    18     2    1
    42    18    23    1
    43     7    34    1
    44     7    33    1
    45    58    25    1
    46    49    17    1
    47    22    23    2
    48    22    53    1
    49    46    16    1
    50    57    25    1
    51    34    69    1
    52    34    71    1
    53    23     6    1
    54    50    17    1
    55    25    59    1
    56    25     6    1
    57     5    17    1
    58     5    16    1
    59     5    15    1
    60    17    48    1
    61    16    45    1
    62    16    47    1
    63    68    33    1
    64    33    67    1
    65    33    66    1
    66     6    26    1
    67     6    24    1
    68    61    26    1
    69    44    15    1
    70    15    43    1
    71    15    42    1
    72    26    62    1
    73    26    60    1
    74    56    24    1
    75    24    54    1
    76    24    55    1
