@<TRIPOS>MOLECULE
1,4,5
 41 40 0 0 0
SMALL
GASTEIGER

@<TRIPOS>ATOM
      1 S           8.8477    0.9290    7.3553 S.2     1  UNL1        0.0000
      2 SI         10.7340    2.2443   12.1540 Si      1  UNL1        0.0000
      3 N           9.6828   -1.2532    8.7222 N.am    1  UNL1        0.0000
      4 C           9.6433    1.7682   10.7141 C.2     1  UNL1        0.0000
      5 C           9.7315    0.9133    9.7821 C.1     1  UNL1        0.0000
      6 C           9.5189    0.0979    8.6988 C.1     1  UNL1        0.0000
      7 C          10.1774    3.8717   12.9835 C.3     1  UNL1        0.0000
      8 C          10.5045    0.8421   13.4388 C.3     1  UNL1        0.0000
      9 C          12.5802    2.3116   11.5671 C.3     1  UNL1        0.0000
     10 C          13.5017    2.6740   12.7323 C.3     1  UNL1        0.0000
     11 C          12.9932    0.9496   11.0077 C.3     1  UNL1        0.0000
     12 C          12.7508    3.3495   10.4567 C.3     1  UNL1        0.0000
     13 C          10.1517   -1.9108    9.9201 C.3     1  UNL1        0.0000
     14 C          11.5334   -2.5393    9.7458 C.3     1  UNL1        0.0000
     15 C           9.2995   -2.0489    7.5798 C.3     1  UNL1        0.0000
     16 C          10.3401   -2.0148    6.4615 C.3     1  UNL1        0.0000
     17 H           9.0982    3.9773   12.9235 H       1  UNL1        0.0000
     18 H          10.6195    4.7516   12.5279 H       1  UNL1        0.0000
     19 H          10.4503    3.8776   14.0343 H       1  UNL1        0.0000
     20 H          10.7937   -0.1259   13.0420 H       1  UNL1        0.0000
     21 H           9.4658    0.7708   13.7454 H       1  UNL1        0.0000
     22 H          11.0960    1.0248   14.3300 H       1  UNL1        0.0000
     23 H          13.4317    1.9336   13.5257 H       1  UNL1        0.0000
     24 H          13.2404    3.6453   13.1457 H       1  UNL1        0.0000
     25 H          14.5386    2.7153   12.3986 H       1  UNL1        0.0000
     26 H          12.3484    0.6736   10.1751 H       1  UNL1        0.0000
     27 H          12.9250    0.1766   11.7696 H       1  UNL1        0.0000
     28 H          14.0219    0.9815   10.6485 H       1  UNL1        0.0000
     29 H          12.1098    3.1112    9.6087 H       1  UNL1        0.0000
     30 H          13.7836    3.3666   10.1082 H       1  UNL1        0.0000
     31 H          12.5032    4.3482   10.8107 H       1  UNL1        0.0000
     32 H           9.4316   -2.6881   10.2085 H       1  UNL1        0.0000
     33 H          10.1891   -1.1615   10.7171 H       1  UNL1        0.0000
     34 H          11.5061   -3.3437    9.0154 H       1  UNL1        0.0000
     35 H          11.8705   -2.9489   10.6945 H       1  UNL1        0.0000
     36 H          12.2485   -1.7892    9.4178 H       1  UNL1        0.0000
     37 H           8.3544   -1.6555    7.1863 H       1  UNL1        0.0000
     38 H           9.1385   -3.0748    7.9202 H       1  UNL1        0.0000
     39 H          11.2986   -2.3939    6.8057 H       1  UNL1        0.0000
     40 H          10.4709   -0.9927    6.1165 H       1  UNL1        0.0000
     41 H          10.0007   -2.6221    5.6267 H       1  UNL1        0.0000
@<TRIPOS>BOND
     1    41    16    1
     2    40    16    1
     3    16    39    1
     4    16    15    1
     5    37    15    1
     6     1     6    2
     7    15    38    1
     8    15     3    1
     9     6     3    1
    10     6     5    2
    11     3    13    1
    12    34    14    1
    13    36    14    1
    14    29    12    1
    15    14    13    1
    16    14    35    1
    17     5     4    2
    18    13    32    1
    19    13    33    1
    20    30    12    1
    21    26    11    1
    22    12    31    1
    23    12     9    1
    24    28    11    1
    25     4     2    1
    26    11     9    1
    27    11    27    1
    28     9     2    1
    29     9    10    1
    30     2     7    1
    31     2     8    1
    32    25    10    1
    33    18     7    1
    34    10    24    1
    35    10    23    1
    36    17     7    1
    37     7    19    1
    38    20     8    1
    39     8    21    1
    40     8    22    1
