@<TRIPOS>MOLECULE
2,13,18,24,25
 55 56 0 0 0
SMALL
GASTEIGER

@<TRIPOS>ATOM
      1 SI          1.0737    5.2592    7.6256 Si      1  UNL1        0.0000
      2 O          -0.6159    5.1940    4.3705 O.2     1  UNL1        0.0000
      3 C           1.0880    4.3024    2.9436 C.3     1  UNL1        0.0000
      4 H           0.4266    4.6002    2.1207 H       1  UNL1        0.0000
      5 C          -0.6565    3.2296    6.2530 C.3     1  UNL1        0.0000
      6 C           3.6298    4.3576    1.4651 C.3     1  UNL1        0.0000
      7 H           4.3418    4.0619    2.2392 H       1  UNL1        0.0000
      8 H           4.1889    4.5208    0.5410 H       1  UNL1        0.0000
      9 C           0.2165    4.1842    4.1801 C.2     1  UNL1        0.0000
     10 C           1.8074    3.0164    2.5466 C.3     1  UNL1        0.0000
     11 H           1.0812    2.2149    2.3982 H       1  UNL1        0.0000
     12 H           2.4893    2.7153    3.3442 H       1  UNL1        0.0000
     13 C          -1.8357    4.5861    7.7797 C.2     1  UNL1        0.0000
     14 C          -2.0311    5.2790    9.0938 C.3     1  UNL1        0.0000
     15 H          -3.0816    5.3415    9.3715 H       1  UNL1        0.0000
     16 H          -1.6074    6.2819    9.0714 H       1  UNL1        0.0000
     17 H          -1.5132    4.7197    9.8751 H       1  UNL1        0.0000
     18 C          -2.7746    3.8139    7.1025 C.2     1  UNL1        0.0000
     19 C           0.2490    3.1773    5.0663 C.2     1  UNL1        0.0000
     20 H           0.8930    2.3225    4.9417 H       1  UNL1        0.0000
     21 C           2.1160    5.4213    3.1556 C.3     1  UNL1        0.0000
     22 H           1.5983    6.3398    3.4408 H       1  UNL1        0.0000
     23 H           2.7788    5.1453    3.9790 H       1  UNL1        0.0000
     24 C          -0.5667    4.5496    7.0750 C.3     1  UNL1        0.0000
     25 C          -2.1624    3.2936    5.8724 C.3     1  UNL1        0.0000
     26 C          -4.1044    3.3473    7.6147 C.3     1  UNL1        0.0000
     27 H          -3.9881    2.3348    8.0138 H       1  UNL1        0.0000
     28 H          -4.8480    3.2938    6.8210 H       1  UNL1        0.0000
     29 H          -4.4857    3.9756    8.4162 H       1  UNL1        0.0000
     30 C          -2.7668    2.1178    5.1427 C.3     1  UNL1        0.0000
     31 H          -2.8902    1.2568    5.8081 H       1  UNL1        0.0000
     32 H          -2.1192    1.8144    4.3183 H       1  UNL1        0.0000
     33 H          -3.7491    2.3664    4.7368 H       1  UNL1        0.0000
     34 C          -0.3793    2.0264    7.1726 C.3     1  UNL1        0.0000
     35 H          -0.5189    1.0934    6.6293 H       1  UNL1        0.0000
     36 H          -1.0541    2.0412    8.0269 H       1  UNL1        0.0000
     37 H           0.6438    2.0682    7.5372 H       1  UNL1        0.0000
     38 C           2.6095    3.2404    1.2668 C.3     1  UNL1        0.0000
     39 H           3.1202    2.3175    0.9827 H       1  UNL1        0.0000
     40 H           1.9303    3.5098    0.4545 H       1  UNL1        0.0000
     41 C           1.3108    6.9486    6.7359 C.3     1  UNL1        0.0000
     42 H           2.3502    7.1274    6.4785 H       1  UNL1        0.0000
     43 H           0.9888    7.7837    7.3528 H       1  UNL1        0.0000
     44 H           0.7296    6.9602    5.8144 H       1  UNL1        0.0000
     45 C           2.9329    5.6474    1.8876 C.3     1  UNL1        0.0000
     46 H           3.6734    6.4322    2.0579 H       1  UNL1        0.0000
     47 H           2.2721    5.9803    1.0832 H       1  UNL1        0.0000
     48 C           1.2841    5.5759    9.5087 C.3     1  UNL1        0.0000
     49 H           0.6552    6.3820    9.8700 H       1  UNL1        0.0000
     50 H           2.3128    5.8532    9.7152 H       1  UNL1        0.0000
     51 H           1.0624    4.6922   10.0978 H       1  UNL1        0.0000
     52 C           2.5829    4.1698    7.1646 C.3     1  UNL1        0.0000
     53 H           2.6685    3.3001    7.8084 H       1  UNL1        0.0000
     54 H           3.5017    4.7393    7.2698 H       1  UNL1        0.0000
     55 H           2.5223    3.8211    6.1400 H       1  UNL1        0.0000
@<TRIPOS>BOND
     1    40    38    1
     2     8     6    1
     3    39    38    1
     4    47    45    1
     5    38     6    1
     6    38    10    1
     7     6    45    1
     8     6     7    1
     9    45    46    1
    10    45    21    1
    11     4     3    1
    12    11    10    1
    13    10     3    1
    14    10    12    1
    15     3    21    1
    16     3     9    1
    17    21    22    1
    18    21    23    1
    19     9     2    1
    20     9    19    2
    21    32    30    1
    22    33    30    1
    23    20    19    1
    24    19     5    1
    25    30    31    1
    26    30    25    1
    27    44    41    1
    28    25     5    1
    29    25    18    1
    30    55    52    1
    31     5    24    1
    32     5    34    1
    33    42    41    1
    34    35    34    1
    35    41    43    1
    36    41     1    1
    37    28    26    1
    38    24     1    1
    39    24    13    1
    40    18    26    1
    41    18    13    2
    42    52    54    1
    43    52     1    1
    44    52    53    1
    45    34    37    1
    46    34    36    1
    47    26    27    1
    48    26    29    1
    49     1    48    1
    50    13    14    1
    51    16    14    1
    52    14    15    1
    53    14    17    1
    54    48    50    1
    55    48    49    1
    56    48    51    1
