@<TRIPOS>MOLECULE
2,37,38,40
 56 57 0 0 0
SMALL
GASTEIGER

@<TRIPOS>ATOM
      1 SI          6.6607    1.0159    6.1511 Si      1  UNL1        0.0000
      2 O           7.4060    2.5817    3.5240 O.3     1  UNL1        0.0000
      3 C           5.9879    2.6410    5.4139 C.ar    1  UNL1        0.0000
      4 C           4.9969    3.3052    6.1238 C.ar    1  UNL1        0.0000
      5 H           4.5767    2.8250    6.9954 H       1  UNL1        0.0000
      6 C           4.5377    4.5546    5.7509 C.ar    1  UNL1        0.0000
      7 C           5.1451    5.1755    4.6670 C.ar    1  UNL1        0.0000
      8 H           4.8134    6.1686    4.4116 H       1  UNL1        0.0000
      9 C           6.1445    4.5718    3.9228 C.ar    1  UNL1        0.0000
     10 C           6.5362    3.2522    4.2651 C.ar    1  UNL1        0.0000
     11 C           3.4249    5.2306    6.4945 C.3     1  UNL1        0.0000
     12 H           3.5514    6.3112    6.4875 H       1  UNL1        0.0000
     13 H           3.3846    4.8862    7.5254 H       1  UNL1        0.0000
     14 H           2.4676    5.0010    6.0246 H       1  UNL1        0.0000
     15 C           6.8320    5.3107    2.7790 C.3     1  UNL1        0.0000
     16 C           6.3863    6.7723    2.6555 C.3     1  UNL1        0.0000
     17 H           5.3290    6.8473    2.4124 H       1  UNL1        0.0000
     18 H           6.9455    7.2475    1.8516 H       1  UNL1        0.0000
     19 H           6.5834    7.3219    3.5729 H       1  UNL1        0.0000
     20 C           8.3477    5.3129    3.0330 C.3     1  UNL1        0.0000
     21 H           8.5590    5.7883    3.9896 H       1  UNL1        0.0000
     22 H           8.8582    5.8751    2.2531 H       1  UNL1        0.0000
     23 H           8.7488    4.2977    3.0531 H       1  UNL1        0.0000
     24 C           6.5021    4.6106    1.4540 C.3     1  UNL1        0.0000
     25 H           7.0294    5.0874    0.6292 H       1  UNL1        0.0000
     26 H           6.7890    3.5609    1.4952 H       1  UNL1        0.0000
     27 H           5.4325    4.6664    1.2581 H       1  UNL1        0.0000
     28 C           5.2682   -0.2908    6.2103 C.3     1  UNL1        0.0000
     29 H           4.8987   -0.5702    5.2309 H       1  UNL1        0.0000
     30 H           5.5953   -1.1882    6.7242 H       1  UNL1        0.0000
     31 H           4.4284    0.1126    6.7667 H       1  UNL1        0.0000
     32 C           7.1004    1.3725    7.9891 C.3     1  UNL1        0.0000
     33 H           6.1953    1.4665    8.5793 H       1  UNL1        0.0000
     34 H           7.6688    2.2875    8.1169 H       1  UNL1        0.0000
     35 H           7.6821    0.5610    8.4153 H       1  UNL1        0.0000
     36 C           8.2455    0.5183    5.2728 C.3     1  UNL1        0.0000
     37 C           9.3564    1.4039    5.1052 C.2     1  UNL1        0.0000
     38 C          10.3367    0.7534    4.3141 C.2     1  UNL1        0.0000
     39 C           9.8478   -0.5407    3.9917 C.2     1  UNL1        0.0000
     40 C           8.5602   -0.6806    4.5588 C.2     1  UNL1        0.0000
     41 C           9.5612    2.7312    5.7763 C.3     1  UNL1        0.0000
     42 H          10.0744    2.5893    6.7312 H       1  UNL1        0.0000
     43 H          10.1791    3.3848    5.1579 H       1  UNL1        0.0000
     44 H           8.6126    3.2303    5.9719 H       1  UNL1        0.0000
     45 C          11.7287    1.2818    4.1221 C.3     1  UNL1        0.0000
     46 H          11.7256    2.2630    3.6448 H       1  UNL1        0.0000
     47 H          12.3313    0.6129    3.5144 H       1  UNL1        0.0000
     48 H          12.2143    1.3831    5.0956 H       1  UNL1        0.0000
     49 C          10.6357   -1.6562    3.3672 C.3     1  UNL1        0.0000
     50 H          11.4989   -1.2777    2.8245 H       1  UNL1        0.0000
     51 H          11.0009   -2.3286    4.1477 H       1  UNL1        0.0000
     52 H          10.0288   -2.2456    2.6798 H       1  UNL1        0.0000
     53 C           7.7984   -1.9691    4.6449 C.3     1  UNL1        0.0000
     54 H           6.7265   -1.8081    4.5634 H       1  UNL1        0.0000
     55 H           7.9958   -2.4464    5.6081 H       1  UNL1        0.0000
     56 H           8.1104   -2.6612    3.8644 H       1  UNL1        0.0000
@<TRIPOS>BOND
     1    25    24    1
     2    27    24    1
     3    24    26    1
     4    24    15    1
     5    18    16    1
     6    22    20    1
     7    17    16    1
     8    16    15    1
     9    16    19    1
    10    52    49    1
    11    15    20    1
    12    15     9    1
    13    50    49    1
    14    20    23    1
    15    20    21    1
    16    49    39    1
    17    49    51    1
    18    47    45    1
    19     2    10    1
    20    46    45    1
    21    56    53    1
    22     9    10   ar
    23     9     7   ar
    24    39    38    1
    25    39    40    2
    26    45    38    1
    27    45    48    1
    28    10     3   ar
    29    38    37    2
    30     8     7    1
    31    40    53    1
    32    40    36    1
    33    54    53    1
    34    53    55    1
    35     7     6   ar
    36    37    36    1
    37    37    41    1
    38    43    41    1
    39    29    28    1
    40    36     1    1
    41     3     4   ar
    42     3     1    1
    43     6     4   ar
    44     6    11    1
    45    41    44    1
    46    41    42    1
    47    14    11    1
    48     4     5    1
    49     1    28    1
    50     1    32    1
    51    28    30    1
    52    28    31    1
    53    12    11    1
    54    11    13    1
    55    32    34    1
    56    32    35    1
    57    32    33    1
