@<TRIPOS>MOLECULE
2
 22 22 0 0 0
SMALL
GASTEIGER

@<TRIPOS>ATOM
      1 N          15.7752    8.0184    8.0596 N.pl3   1  UNL1       -0.2364
      2 C          15.3252    8.3617    9.0898 C.3     1  UNL1        0.1354
      3 C          15.9882    7.4008    6.8693 C.ar    1  UNL1        0.0545
      4 C          15.1942    6.2945    6.5312 C.ar    1  UNL1       -0.0274
      5 C          15.4233    5.6818    5.3129 C.ar    1  UNL1       -0.0541
      6 H          14.8219    4.8287    5.0333 H       1  UNL1        0.0623
      7 C          16.4059    6.1346    4.4386 C.ar    1  UNL1       -0.0498
      8 C          17.1742    7.2319    4.8020 C.ar    1  UNL1       -0.0541
      9 H          17.9397    7.5923    4.1296 H       1  UNL1        0.0623
     10 C          16.9823    7.8793    6.0113 C.ar    1  UNL1       -0.0274
     11 C          14.1516    5.8158    7.4864 C.3     1  UNL1       -0.0379
     12 H          14.6228    5.4102    8.3819 H       1  UNL1        0.0278
     13 H          13.5361    5.0441    7.0339 H       1  UNL1        0.0278
     14 H          13.5149    6.6399    7.8101 H       1  UNL1        0.0278
     15 C          16.6176    5.4412    3.1278 C.3     1  UNL1       -0.0397
     16 H          17.4404    5.8887    2.5766 H       1  UNL1        0.0278
     17 H          15.7166    5.5030    2.5185 H       1  UNL1        0.0278
     18 H          16.8374    4.3865    3.2878 H       1  UNL1        0.0278
     19 C          17.7965    9.0721    6.4079 C.3     1  UNL1       -0.0379
     20 H          18.5980    9.2487    5.6956 H       1  UNL1        0.0278
     21 H          18.2266    8.9264    7.3983 H       1  UNL1        0.0278
     22 H          17.1638    9.9594    6.4460 H       1  UNL1        0.0278
@<TRIPOS>BOND
     1    17    15    1
     2    16    15    1
     3    15    18    1
     4    15     7    1
     5     9     8    1
     6     7     8   ar
     7     7     5   ar
     8     8    10   ar
     9     6     5    1
    10     5     4   ar
    11    20    19    1
    12    10    19    1
    13    10     3   ar
    14    19    22    1
    15    19    21    1
    16     4     3   ar
    17     4    11    1
    18     3     1    1
    19    13    11    1
    20    11    14    1
    21    11    12    1
    22     1     2    1
