@<TRIPOS>MOLECULE
3
 33 33 0 0 0
SMALL
GASTEIGER

@<TRIPOS>ATOM
      1 N           9.1591    1.6456    1.5109 N.pl3   1  UNL1       -0.3026
      2 N           8.6142    1.3214   -0.5544 N.pl3   1  UNL1       -0.3026
      3 C           9.0357    2.2718    0.3146 C.3     1  UNL1        0.1874
      4 C           8.8354    0.3215    1.3812 C.2     1  UNL1        0.0084
      5 C           8.5097    0.1158    0.0880 C.2     1  UNL1        0.0084
      6 C           9.4146    2.2868    2.7963 C.3     1  UNL1        0.0282
      7 C          10.0913    1.3001    3.7549 C.3     1  UNL1       -0.0441
      8 H           9.4008    0.5361    4.1027 H       1  UNL1        0.0250
      9 H          10.4527    1.8381    4.6268 H       1  UNL1        0.0250
     10 H          10.9407    0.8182    3.2767 H       1  UNL1        0.0250
     11 C           8.0662    2.7425    3.3634 C.3     1  UNL1       -0.0441
     12 H           7.6492    3.5097    2.7153 H       1  UNL1        0.0250
     13 H           8.1983    3.1512    4.3610 H       1  UNL1        0.0250
     14 H           7.3713    1.9078    3.4218 H       1  UNL1        0.0250
     15 C          10.3120    3.5002    2.5955 C.3     1  UNL1       -0.0441
     16 H          11.2442    3.2182    2.1220 H       1  UNL1        0.0250
     17 H          10.5245    3.9620    3.5549 H       1  UNL1        0.0250
     18 H           9.8034    4.2283    1.9652 H       1  UNL1        0.0250
     19 C           8.3095    1.5055   -1.9713 C.3     1  UNL1        0.0282
     20 C           7.2349    0.4999   -2.4050 C.3     1  UNL1       -0.0441
     21 H           7.6275   -0.5112   -2.4761 H       1  UNL1        0.0250
     22 H           6.8666    0.7775   -3.3888 H       1  UNL1        0.0250
     23 H           6.3969    0.5101   -1.7119 H       1  UNL1        0.0250
     24 C           9.5909    1.2957   -2.7787 C.3     1  UNL1       -0.0441
     25 H          10.3197    2.0425   -2.4789 H       1  UNL1        0.0250
     26 H           9.3868    1.3960   -3.8406 H       1  UNL1        0.0250
     27 H           9.9996    0.3035   -2.5990 H       1  UNL1        0.0250
     28 C           7.7700    2.9173   -2.1876 C.3     1  UNL1       -0.0441
     29 H           6.8547    3.0642   -1.6254 H       1  UNL1        0.0250
     30 H           7.5629    3.0707   -3.2426 H       1  UNL1        0.0250
     31 H           8.5112    3.6453   -1.8672 H       1  UNL1        0.0250
     32 H           8.2178   -0.7921   -0.3940 H       1  UNL1        0.0793
     33 H           8.8586   -0.3789    2.1880 H       1  UNL1        0.0793
@<TRIPOS>BOND
     1    26    24    1
     2    22    20    1
     3    30    28    1
     4    24    27    1
     5    24    25    1
     6    24    19    1
     7    21    20    1
     8    20    19    1
     9    20    23    1
    10    28    19    1
    11    28    31    1
    12    28    29    1
    13    19     2    1
    14     2     5    1
    15     2     3    1
    16    32     5    1
    17     5     4    2
    18     3     1    1
    19     4     1    1
    20     4    33    1
    21     1     6    1
    22    18    15    1
    23    16    15    1
    24    15     6    1
    25    15    17    1
    26    12    11    1
    27     6    11    1
    28     6     7    1
    29    10     7    1
    30    11    14    1
    31    11    13    1
    32     7     8    1
    33     7     9    1
