@<TRIPOS>MOLECULE
4
 65 67 0 0 0
SMALL
GASTEIGER

@<TRIPOS>ATOM
      1 N           5.3016   11.7018    4.0188 N.pl3   1  UNL1       -0.2741
      2 N           4.5770   12.8257    2.3154 N.pl3   1  UNL1       -0.2815
      3 C           4.2095   12.2262    3.4413 C.3     1  UNL1        0.1346
      4 C           6.4380   11.9400    3.2368 C.2     1  UNL1        0.0727
      5 C           5.9276   12.6707    2.1856 C.2     1  UNL1        0.0220
      6 C           5.1784   10.9938    5.2454 C.ar    1  UNL1        0.0426
      7 C           5.2188    9.5974    5.2258 C.ar    1  UNL1       -0.0231
      8 C           5.0188    8.9114    6.4158 C.ar    1  UNL1       -0.0565
      9 H           5.0663    7.8343    6.4259 H       1  UNL1        0.0621
     10 C           4.7426    9.5903    7.5863 C.ar    1  UNL1       -0.0611
     11 H           4.5769    9.0438    8.5024 H       1  UNL1        0.0618
     12 C           4.6758   10.9699    7.5847 C.ar    1  UNL1       -0.0565
     13 H           4.4502   11.4885    8.5025 H       1  UNL1        0.0621
     14 C           4.8988   11.6970    6.4225 C.ar    1  UNL1       -0.0231
     15 C           5.4895    8.8482    3.9472 C.3     1  UNL1       -0.0197
     16 C           6.9376    8.3614    3.9709 C.3     1  UNL1       -0.0586
     17 H           7.6135    9.2173    4.0694 H       1  UNL1        0.0235
     18 H           7.1702    7.8332    3.0516 H       1  UNL1        0.0235
     19 H           7.0985    7.6896    4.8099 H       1  UNL1        0.0235
     20 C           4.5139    7.6894    3.7309 C.3     1  UNL1       -0.0586
     21 H           4.6714    6.8941    4.4542 H       1  UNL1        0.0235
     22 H           4.6609    7.2724    2.7376 H       1  UNL1        0.0235
     23 H           3.4840    8.0316    3.8130 H       1  UNL1        0.0235
     24 C           4.8201   13.2059    6.4614 C.3     1  UNL1       -0.0197
     25 C           5.6004   13.7726    7.6506 C.3     1  UNL1       -0.0586
     26 H           5.0524   13.6365    8.5796 H       1  UNL1        0.0235
     27 H           5.7630   14.8389    7.5112 H       1  UNL1        0.0235
     28 H           6.5635   13.2799    7.7393 H       1  UNL1        0.0235
     29 C           3.3611   13.6678    6.5424 C.3     1  UNL1       -0.0586
     30 H           2.7894   13.3406    5.6775 H       1  UNL1        0.0235
     31 H           3.3173   14.7534    6.5914 H       1  UNL1        0.0235
     32 H           2.8862   13.2631    7.4333 H       1  UNL1        0.0235
     33 C           3.7063   13.4453    1.3825 C.ar    1  UNL1        0.0421
     34 C           3.1513   12.6608    0.3671 C.ar    1  UNL1       -0.0232
     35 C           2.2679   13.2695   -0.5131 C.ar    1  UNL1       -0.0565
     36 H           1.8079   12.6896   -1.2970 H       1  UNL1        0.0621
     37 C           1.9689   14.6146   -0.3995 C.ar    1  UNL1       -0.0611
     38 H           1.2782   15.0710   -1.0927 H       1  UNL1        0.0618
     39 C           2.5560   15.3792    0.5899 C.ar    1  UNL1       -0.0565
     40 H           2.3252   16.4307    0.6565 H       1  UNL1        0.0621
     41 C           3.4370   14.8091    1.4998 C.ar    1  UNL1       -0.0232
     42 C           3.4860   11.1912    0.2549 C.3     1  UNL1       -0.0197
     43 C           2.3617   10.3550    0.8748 C.3     1  UNL1       -0.0586
     44 H           2.2176   10.6140    1.9217 H       1  UNL1        0.0235
     45 H           2.6058    9.2973    0.8135 H       1  UNL1        0.0235
     46 H           1.4255   10.5262    0.3479 H       1  UNL1        0.0235
     47 C           3.7356   10.7657   -1.1922 C.3     1  UNL1       -0.0586
     48 H           2.8229   10.7928   -1.7814 H       1  UNL1        0.0235
     49 H           4.1173    9.7477   -1.2119 H       1  UNL1        0.0235
     50 H           4.4725   11.4158   -1.6569 H       1  UNL1        0.0235
     51 C           4.0918   15.6513    2.5686 C.3     1  UNL1       -0.0197
     52 C           3.0433   16.2618    3.5009 C.3     1  UNL1       -0.0586
     53 H           2.3945   16.9472    2.9620 H       1  UNL1        0.0235
     54 H           3.5336   16.8131    4.2996 H       1  UNL1        0.0235
     55 H           2.4258   15.4841    3.9453 H       1  UNL1        0.0235
     56 C           4.9546   16.7395    1.9263 C.3     1  UNL1       -0.0586
     57 H           4.3454   17.4399    1.3609 H       1  UNL1        0.0235
     58 H           5.6821   16.2923    1.2535 H       1  UNL1        0.0235
     59 H           5.4908   17.2905    2.6947 H       1  UNL1        0.0235
     60 H           3.2078   12.1562    3.8126 H       1  UNL1        0.0753
     61 H           6.4593   13.0804    1.3583 H       1  UNL1        0.0804
     62 H           5.3794    9.5341    3.1037 H       1  UNL1        0.0344
     63 H           5.2650   13.6060    5.5455 H       1  UNL1        0.0344
     64 H           4.4083   10.9970    0.8106 H       1  UNL1        0.0344
     65 H           4.7525   15.0196    3.1689 H       1  UNL1        0.0344
@<TRIPOS>BOND
     1    48    47    1
     2    50    47    1
     3    36    35    1
     4    49    47    1
     5    47    42    1
     6    38    37    1
     7    35    37   ar
     8    35    34   ar
     9    37    39   ar
    10    42    34    1
    11    42    64    1
    12    42    43    1
    13    46    43    1
    14    34    33   ar
    15    39    40    1
    16    39    41   ar
    17    45    43    1
    18    43    44    1
    19    58    56    1
    20    61     5    1
    21    57    56    1
    22    33    41   ar
    23    33     2    1
    24    41    51    1
    25    56    51    1
    26    56    59    1
    27     5     2    1
    28     5     4    2
    29     2     3    1
    30    51    65    1
    31    51    52    1
    32    22    20    1
    33    53    52    1
    34    18    16    1
    35    62    15    1
    36     4     1    1
    37     3    60    1
    38     3     1    1
    39    52    55    1
    40    52    54    1
    41    20    23    1
    42    20    15    1
    43    20    21    1
    44    15    16    1
    45    15     7    1
    46    16    17    1
    47    16    19    1
    48     1     6    1
    49     7     6   ar
    50     7     8   ar
    51     6    14   ar
    52    63    24    1
    53    30    29    1
    54     8     9    1
    55     8    10   ar
    56    14    24    1
    57    14    12   ar
    58    24    29    1
    59    24    25    1
    60    29    31    1
    61    29    32    1
    62    27    25    1
    63    12    10   ar
    64    12    13    1
    65    10    11    1
    66    25    28    1
    67    25    26    1
