@<TRIPOS>MOLECULE
2
 16 15 0 0 0
SMALL
GASTEIGER

@<TRIPOS>ATOM
      1 SI          6.1007    0.7894    9.4993 Si      1  UNL1        0.0000
      2 C           4.2364    0.7929    9.2167 C.3     1  UNL1        0.0000
      3 C           6.4892    1.6809   11.1618 C.3     1  UNL1        0.0000
      4 C           7.1680    1.6835    8.1714 C.3     1  UNL1        0.0000
      5 C           6.7409   -1.0043    9.6624 C.3     1  UNL1        0.0000
      6 H           7.5454    1.6341   11.4097 H       1  UNL1        0.0000
      7 H           5.9340    1.2049   11.9705 H       1  UNL1        0.0000
      8 H           6.2073    2.7306   11.1350 H       1  UNL1        0.0000
      9 H           8.2273    1.6332    8.4050 H       1  UNL1        0.0000
     10 H           6.9012    2.7334    8.0922 H       1  UNL1        0.0000
     11 H           7.0287    1.2379    7.1913 H       1  UNL1        0.0000
     12 H           7.7580   -1.0455   10.0404 H       1  UNL1        0.0000
     13 H           6.1002   -1.5558   10.3455 H       1  UNL1        0.0000
     14 H           6.7265   -1.5189    8.7070 H       1  UNL1        0.0000
     15 H           3.9416    1.7762    8.8167 H       1  UNL1        0.0000
     16 H           4.0346    0.0814    8.3990 H       1  UNL1        0.0000
@<TRIPOS>BOND
     1    11     4    1
     2    10     4    1
     3     4     9    1
     4     4     1    1
     5    16     2    1
     6    14     5    1
     7    15     2    1
     8     2     1    1
     9     1     5    1
    10     1     3    1
    11     5    12    1
    12     5    13    1
    13     8     3    1
    14     3     6    1
    15     3     7    1
