@<TRIPOS>MOLECULE
2
 16 15 0 0 0
SMALL
GASTEIGER

@<TRIPOS>ATOM
      1 SI          1.6656    1.4446    1.4060 Si      1  UNL1        0.0000
      2 C           2.1997    1.8981    3.1506 C.3     1  UNL1        0.0000
      3 H           2.5299    0.9889    3.6559 H       1  UNL1        0.0000
      4 H           1.2751    2.1979    3.6459 H       1  UNL1        0.0000
      5 C           3.0067    1.0126    0.1142 C.3     1  UNL1        0.0000
      6 H           3.5280    1.8996   -0.2255 H       1  UNL1        0.0000
      7 H           2.5564    0.5418   -0.7554 H       1  UNL1        0.0000
      8 H           3.7437    0.3240    0.5109 H       1  UNL1        0.0000
      9 C           0.5626    2.8081    0.6447 C.3     1  UNL1        0.0000
     10 H          -0.0914    3.2457    1.3920 H       1  UNL1        0.0000
     11 H          -0.0641    2.4131   -0.1492 H       1  UNL1        0.0000
     12 H           1.1604    3.6089    0.2242 H       1  UNL1        0.0000
     13 C           0.5716   -0.1354    1.5200 C.3     1  UNL1        0.0000
     14 H           1.1403   -0.9861    1.8841 H       1  UNL1        0.0000
     15 H           0.1615   -0.4098    0.5527 H       1  UNL1        0.0000
     16 H          -0.2635    0.0105    2.1982 H       1  UNL1        0.0000
@<TRIPOS>BOND
     1     7     5    1
     2     6     5    1
     3    11     9    1
     4     5     8    1
     5     5     1    1
     6    12     9    1
     7    15    13    1
     8     9    10    1
     9     9     1    1
    10     1    13    1
    11     1     2    1
    12    13    14    1
    13    13    16    1
    14     2     4    1
    15     2     3    1
