@<TRIPOS>MOLECULE
2
 16 15 0 0 0
SMALL
GASTEIGER

@<TRIPOS>ATOM
      1 SI          5.5506    6.1478    4.0370 Si      1  UNL1        0.0000
      2 C           4.9585    4.4531    4.5959 C.3     1  UNL1        0.0000
      3 H           4.5916    4.5382    5.6202 H       1  UNL1        0.0000
      4 H           5.8693    3.8552    4.6523 H       1  UNL1        0.0000
      5 C           6.7138    6.0090    2.5258 C.3     1  UNL1        0.0000
      6 H           7.3418    5.1269    2.5943 H       1  UNL1        0.0000
      7 H           7.3678    6.8724    2.4488 H       1  UNL1        0.0000
      8 H           6.1514    5.9390    1.6015 H       1  UNL1        0.0000
      9 C           6.6026    6.8985    5.4637 C.3     1  UNL1        0.0000
     10 H           6.0008    7.0726    6.3509 H       1  UNL1        0.0000
     11 H           7.0439    7.8491    5.1798 H       1  UNL1        0.0000
     12 H           7.4137    6.2350    5.7475 H       1  UNL1        0.0000
     13 C           4.2535    7.4922    3.6325 C.3     1  UNL1        0.0000
     14 H           3.7667    7.2984    2.6842 H       1  UNL1        0.0000
     15 H           4.7280    8.4674    3.5658 H       1  UNL1        0.0000
     16 H           3.4855    7.5563    4.3947 H       1  UNL1        0.0000
@<TRIPOS>BOND
     1     8     5    1
     2     7     5    1
     3     5     6    1
     4     5     1    1
     5    14    13    1
     6    15    13    1
     7    13     1    1
     8    13    16    1
     9     1     2    1
    10     1     9    1
    11     2     4    1
    12     2     3    1
    13    11     9    1
    14     9    12    1
    15     9    10    1
