@<TRIPOS>MOLECULE
2
 26 26 0 0 0
SMALL
GASTEIGER

@<TRIPOS>ATOM
      1 SI          3.9877   -3.1460    4.0936 Si      1  UNL1        0.0000
      2 C           2.1098   -1.1484    4.4877 C.3     1  UNL1        0.0000
      3 C           2.7651   -2.0697    5.1136 C.3     1  UNL1        0.0000
      4 C           2.5719   -2.3610    6.5411 C.ar    1  UNL1        0.0000
      5 C           3.6345   -2.6538    7.3883 C.ar    1  UNL1        0.0000
      6 C           3.4108   -2.8893    8.7328 C.ar    1  UNL1        0.0000
      7 C           2.1276   -2.8361    9.2496 C.ar    1  UNL1        0.0000
      8 C           1.0644   -2.5423    8.4110 C.ar    1  UNL1        0.0000
      9 C           1.2832   -2.3085    7.0678 C.ar    1  UNL1        0.0000
     10 C           3.8506   -4.9106    4.8114 C.3     1  UNL1        0.0000
     11 C           3.5151   -3.1571    2.2522 C.3     1  UNL1        0.0000
     12 C           5.7800   -2.4947    4.2585 C.3     1  UNL1        0.0000
     13 H           4.6411   -2.6815    7.0001 H       1  UNL1        0.0000
     14 H           4.2461   -3.1122    9.3820 H       1  UNL1        0.0000
     15 H           1.9577   -3.0194   10.3006 H       1  UNL1        0.0000
     16 H           0.0604   -2.4921    8.8068 H       1  UNL1        0.0000
     17 H           0.4618   -2.0767    6.4064 H       1  UNL1        0.0000
     18 H           4.1858   -4.9601    5.8419 H       1  UNL1        0.0000
     19 H           4.4559   -5.6013    4.2331 H       1  UNL1        0.0000
     20 H           2.8253   -5.2678    4.7856 H       1  UNL1        0.0000
     21 H           4.3964   -3.2603    1.6261 H       1  UNL1        0.0000
     22 H           3.0142   -2.2376    1.9637 H       1  UNL1        0.0000
     23 H           2.8495   -3.9816    2.0181 H       1  UNL1        0.0000
     24 H           6.0811   -2.3202    5.2866 H       1  UNL1        0.0000
     25 H           6.4733   -3.2151    3.8340 H       1  UNL1        0.0000
     26 H           5.9035   -1.5625    3.7167 H       1  UNL1        0.0000
@<TRIPOS>BOND
     1    21    11    1
     2    22    11    1
     3    23    11    1
     4    11     1    1
     5    26    12    1
     6    25    12    1
     7     1    12    1
     8     1    10    1
     9     1     3    1
    10    19    10    1
    11    12    24    1
    12     2     3    1
    13    20    10    1
    14    10    18    1
    15     3     4    1
    16    17     9    1
    17     4     9   ar
    18     4     5   ar
    19    13     5    1
    20     9     8   ar
    21     5     6   ar
    22     8    16    1
    23     8     7   ar
    24     6     7   ar
    25     6    14    1
    26     7    15    1
