@<TRIPOS>MOLECULE
8
 42 43 0 0 0
SMALL
GASTEIGER

@<TRIPOS>ATOM
      1 SI         12.6388    3.6823    5.9163 Si      1  UNL1        0.0000
      2 C          13.8827    2.3860    6.5269 C.ar    1  UNL1        0.0000
      3 C          15.2626    2.4990    6.2759 C.ar    1  UNL1        0.0000
      4 C          16.1222    1.4675    6.6695 C.ar    1  UNL1        0.0000
      5 C          15.6574    0.3342    7.3092 C.ar    1  UNL1        0.0000
      6 C          14.2953    0.2384    7.5644 C.ar    1  UNL1        0.0000
      7 C          13.4156    1.2408    7.1837 C.ar    1  UNL1        0.0000
      8 C          15.8331    3.6469    5.5582 C.3     1  UNL1        0.0000
      9 C          16.5854   -0.7705    7.7177 C.3     1  UNL1        0.0000
     10 C          11.9568    1.0718    7.4874 C.3     1  UNL1        0.0000
     11 C          11.6410    4.4033    7.3610 C.ar    1  UNL1        0.0000
     12 C          12.2576    4.7595    8.5673 C.ar    1  UNL1        0.0000
     13 C          11.5040    5.2526    9.6209 C.ar    1  UNL1        0.0000
     14 C          10.1314    5.4185    9.5143 C.ar    1  UNL1        0.0000
     15 C           9.5295    5.0957    8.3092 C.ar    1  UNL1        0.0000
     16 C          10.2622    4.6003    7.2398 C.ar    1  UNL1        0.0000
     17 C          13.7405    4.6260    8.7485 C.3     1  UNL1        0.0000
     18 C           9.3371    5.9665   10.6609 C.3     1  UNL1        0.0000
     19 C           9.5389    4.2955    5.9627 C.3     1  UNL1        0.0000
     20 H          11.7884    2.9308    4.9727 H       1  UNL1        0.0000
     21 H          13.1837    4.8302    5.1697 H       1  UNL1        0.0000
     22 H          17.1832    1.5723    6.4825 H       1  UNL1        0.0000
     23 H          13.9168   -0.6391    8.0709 H       1  UNL1        0.0000
     24 H          15.3721    4.5895    5.8467 H       1  UNL1        0.0000
     25 H          16.9121    3.7183    5.7210 H       1  UNL1        0.0000
     26 H          17.6249   -0.4830    7.5745 H       1  UNL1        0.0000
     27 H          16.3890   -1.6661    7.1270 H       1  UNL1        0.0000
     28 H          16.4368   -1.0267    8.7657 H       1  UNL1        0.0000
     29 H          11.7851    0.1571    8.0507 H       1  UNL1        0.0000
     30 H          11.5813    1.9131    8.0670 H       1  UNL1        0.0000
     31 H          11.3803    1.0215    6.5649 H       1  UNL1        0.0000
     32 H          11.9957    5.5180   10.5472 H       1  UNL1        0.0000
     33 H           8.4628    5.2374    8.1987 H       1  UNL1        0.0000
     34 H          14.2714    5.0627    7.9053 H       1  UNL1        0.0000
     35 H          14.0612    5.1299    9.6578 H       1  UNL1        0.0000
     36 H          14.0278    3.5778    8.8192 H       1  UNL1        0.0000
     37 H           9.6555    5.5173   11.5998 H       1  UNL1        0.0000
     38 H           9.4884    7.0437   10.7379 H       1  UNL1        0.0000
     39 H           8.2748    5.7806   10.5229 H       1  UNL1        0.0000
     40 H           8.5150    4.6591    6.0093 H       1  UNL1        0.0000
     41 H          10.0391    4.7635    5.1185 H       1  UNL1        0.0000
     42 H           9.5121    3.2224    5.7834 H       1  UNL1        0.0000
@<TRIPOS>BOND
     1    20     1    1
     2    41    19    1
     3    21     1    1
     4     8    25    1
     5     8    24    1
     6     8     3    1
     7    42    19    1
     8     1     2    1
     9     1    11    1
    10    19    40    1
    11    19    16    1
    12     3     2   ar
    13     3     4   ar
    14    22     4    1
    15     2     7   ar
    16    31    10    1
    17     4     5   ar
    18    27     9    1
    19     7    10    1
    20     7     6   ar
    21    16    11   ar
    22    16    15   ar
    23     5     6   ar
    24     5     9    1
    25    11    12   ar
    26    10    29    1
    27    10    30    1
    28     6    23    1
    29    26     9    1
    30     9    28    1
    31    34    17    1
    32    33    15    1
    33    15    14   ar
    34    12    17    1
    35    12    13   ar
    36    17    36    1
    37    17    35    1
    38    14    13   ar
    39    14    18    1
    40    13    32    1
    41    39    18    1
    42    18    38    1
    43    18    37    1
