@<TRIPOS>MOLECULE
2
 15 14 0 0 0
SMALL
GASTEIGER

@<TRIPOS>ATOM
      1 SI         -4.5603   12.4280    1.6729 Si      1  UNL1        0.0000
      2 C          -5.1370   12.9085    3.3767 C.3     1  UNL1        0.0000
      3 H          -4.9626   13.9602    3.6350 H       1  UNL1        0.0000
      4 C          -3.7228   13.8906    0.7529 C.3     1  UNL1        0.0000
      5 H          -3.4715   13.6214   -0.2674 H       1  UNL1        0.0000
      6 H          -2.8043   14.1906    1.2463 H       1  UNL1        0.0000
      7 H          -4.3696   14.7615    0.7107 H       1  UNL1        0.0000
      8 C          -6.1176   11.9407    0.6470 C.3     1  UNL1        0.0000
      9 H          -6.9032   11.6267    1.3333 H       1  UNL1        0.0000
     10 H          -5.9146   11.1176   -0.0296 H       1  UNL1        0.0000
     11 H          -6.4959   12.7668    0.0524 H       1  UNL1        0.0000
     12 C          -3.3406   10.9551    1.5716 C.3     1  UNL1        0.0000
     13 H          -3.7291   10.1007    2.1151 H       1  UNL1        0.0000
     14 H          -2.3714   11.2065    1.9890 H       1  UNL1        0.0000
     15 H          -3.1837   10.6519    0.5407 H       1  UNL1        0.0000
@<TRIPOS>BOND
     1     5     4    1
     2    10     8    1
     3    11     8    1
     4    15    12    1
     5     8     9    1
     6     8     1    1
     7     7     4    1
     8     4     6    1
     9     4     1    1
    10    12     1    1
    11    12    14    1
    12    12    13    1
    13     1     2    1
    14     2     3    1
