@<TRIPOS>MOLECULE
1
 36 38 0 0 0
SMALL
GASTEIGER

@<TRIPOS>ATOM
      1 C           2.7412   10.0395   11.7322 C.3     1  UNL1        0.0000
      2 O           2.6425   10.4325   12.8958 O.3     1  UNL1        0.0000
      3 B           1.4604   10.2628   13.8400 B       1  UNL1        0.0000
      4 C           0.6342   11.6769   13.8387 C.ar    1  UNL1        0.0000
      5 C           0.6185   12.5374   12.7461 C.ar    1  UNL1        0.0000
      6 C          -0.0802   13.7408   12.7446 C.ar    1  UNL1        0.0000
      7 C          -0.7926   14.1302   13.8685 C.ar    1  UNL1        0.0000
      8 C          -0.7934   13.3005   14.9821 C.ar    1  UNL1        0.0000
      9 C          -0.0895   12.1038   14.9476 C.ar    1  UNL1        0.0000
     10 F           1.2856   12.2366   11.6227 F       1  UNL1        0.0000
     11 F          -0.0687   14.5259   11.6539 F       1  UNL1        0.0000
     12 F          -1.4685   15.2892   13.8812 F       1  UNL1        0.0000
     13 F          -1.4730   13.6629   16.0816 F       1  UNL1        0.0000
     14 F          -0.1359   11.3393   16.0526 F       1  UNL1        0.0000
     15 C           0.5700    9.0032   13.3214 C.ar    1  UNL1        0.0000
     16 C          -0.7963    9.0124   13.0860 C.ar    1  UNL1        0.0000
     17 C          -1.4857    7.9060   12.5999 C.ar    1  UNL1        0.0000
     18 C          -0.7948    6.7366   12.3153 C.ar    1  UNL1        0.0000
     19 C           0.5763    6.6883   12.5293 C.ar    1  UNL1        0.0000
     20 C           1.2333    7.8127   13.0156 C.ar    1  UNL1        0.0000
     21 F          -1.5286   10.1148   13.3456 F       1  UNL1        0.0000
     22 F          -2.8157    7.9627   12.4062 F       1  UNL1        0.0000
     23 F          -1.4501    5.6616   11.8500 F       1  UNL1        0.0000
     24 F           1.2395    5.5533   12.2813 F       1  UNL1        0.0000
     25 F           2.5365    7.6989   13.3008 F       1  UNL1        0.0000
     26 C           2.1232   10.0178   15.3113 C.ar    1  UNL1        0.0000
     27 C           1.9051    8.9195   16.1362 C.ar    1  UNL1        0.0000
     28 C           2.5595    8.7467   17.3511 C.ar    1  UNL1        0.0000
     29 C           3.4708    9.6974   17.7901 C.ar    1  UNL1        0.0000
     30 C           3.6926   10.8241   17.0089 C.ar    1  UNL1        0.0000
     31 C           3.0185   10.9656   15.8040 C.ar    1  UNL1        0.0000
     32 F           1.0111    7.9757   15.8003 F       1  UNL1        0.0000
     33 F           2.3103    7.6674   18.1091 F       1  UNL1        0.0000
     34 F           4.1124    9.5405   18.9583 F       1  UNL1        0.0000
     35 F           4.5492   11.7707   17.4281 F       1  UNL1        0.0000
     36 F           3.2349   12.0971   15.1137 F       1  UNL1        0.0000
@<TRIPOS>BOND
     1    10     5    1
     2    11     6    1
     3     1     2    1
     4    23    18    1
     5    24    19    1
     6    18    19   ar
     7    18    17   ar
     8    22    17    1
     9    19    20   ar
    10    17    16   ar
    11     6     5   ar
    12     6     7   ar
    13     5     4   ar
    14     2     3    1
    15    20    25    1
    16    20    15   ar
    17    16    15   ar
    18    16    21    1
    19    15     3    1
    20     4     3    1
    21     4     9   ar
    22     3    26    1
    23     7    12    1
    24     7     8   ar
    25     9     8   ar
    26     9    14    1
    27     8    13    1
    28    36    31    1
    29    26    31   ar
    30    26    27   ar
    31    32    27    1
    32    31    30   ar
    33    27    28   ar
    34    30    35    1
    35    30    29   ar
    36    28    29   ar
    37    28    33    1
    38    29    34    1
