@<TRIPOS>MOLECULE
3
 65 67 0 0 0
SMALL
GASTEIGER

@<TRIPOS>ATOM
      1 N           3.1972   10.6375    4.2552 N.pl3   1  UNL1       -0.2762
      2 N           1.7547   11.2892    5.7025 N.pl3   1  UNL1       -0.2762
      3 C           2.9542   10.6676    5.5883 C.3     1  UNL1        0.1959
      4 C           1.2585   11.6220    4.4685 C.2     1  UNL1        0.0131
      5 H           0.3211   12.1246    4.3524 H       1  UNL1        0.0797
      6 C           2.1608   11.2105    3.5576 C.2     1  UNL1        0.0131
      7 H           2.1676   11.2713    2.4887 H       1  UNL1        0.0797
      8 C           4.3363   10.1885    3.5279 C.ar    1  UNL1        0.0424
      9 C           4.2796    8.9495    2.8854 C.ar    1  UNL1       -0.0231
     10 C           5.3456    8.5898    2.0688 C.ar    1  UNL1       -0.0565
     11 H           5.3301    7.6392    1.5596 H       1  UNL1        0.0621
     12 C           6.4195    9.4390    1.8916 C.ar    1  UNL1       -0.0611
     13 H           7.2355    9.1483    1.2462 H       1  UNL1        0.0618
     14 C           6.4571   10.6626    2.5361 C.ar    1  UNL1       -0.0565
     15 H           7.3033   11.3117    2.3810 H       1  UNL1        0.0621
     16 C           5.4205   11.0618    3.3684 C.ar    1  UNL1       -0.0231
     17 C           5.4475   12.3993    4.0756 C.3     1  UNL1       -0.0197
     18 H           4.9604   12.2732    5.0510 H       1  UNL1        0.0344
     19 C           6.8650   12.9168    4.3257 C.3     1  UNL1       -0.0586
     20 H           6.8318   13.7339    5.0432 H       1  UNL1        0.0235
     21 H           7.5071   12.1354    4.7250 H       1  UNL1        0.0235
     22 H           7.3115   13.2962    3.4091 H       1  UNL1        0.0235
     23 C           4.6698   13.4459    3.2692 C.3     1  UNL1       -0.0586
     24 H           4.7321   14.4128    3.7633 H       1  UNL1        0.0235
     25 H           5.0939   13.5400    2.2711 H       1  UNL1        0.0235
     26 H           3.6204   13.1798    3.1750 H       1  UNL1        0.0235
     27 C           3.0957    8.0266    3.0499 C.3     1  UNL1       -0.0197
     28 H           2.4928    8.3637    3.8980 H       1  UNL1        0.0344
     29 C           3.5329    6.5936    3.3559 C.3     1  UNL1       -0.0586
     30 H           2.6657    6.0057    3.6450 H       1  UNL1        0.0235
     31 H           3.9988    6.1198    2.4949 H       1  UNL1        0.0235
     32 H           4.2363    6.5831    4.1833 H       1  UNL1        0.0235
     33 C           2.2292    8.0541    1.7878 C.3     1  UNL1       -0.0586
     34 H           1.3803    7.3859    1.9096 H       1  UNL1        0.0235
     35 H           1.8504    9.0549    1.5924 H       1  UNL1        0.0235
     36 H           2.8038    7.7300    0.9223 H       1  UNL1        0.0235
     37 C           1.0437   11.6848    6.8739 C.ar    1  UNL1        0.0424
     38 C          -0.1126   10.9871    7.2369 C.ar    1  UNL1       -0.0231
     39 C          -0.8434   11.4573    8.3211 C.ar    1  UNL1       -0.0565
     40 H          -1.7388   10.9387    8.6244 H       1  UNL1        0.0621
     41 C          -0.4468   12.5840    9.0126 C.ar    1  UNL1       -0.0611
     42 H          -1.0247   12.9305    9.8566 H       1  UNL1        0.0618
     43 C           0.6733   13.2857    8.6096 C.ar    1  UNL1       -0.0565
     44 H           0.9476   14.1891    9.1314 H       1  UNL1        0.0621
     45 C           1.4323   12.8588    7.5285 C.ar    1  UNL1       -0.0231
     46 C           2.5713   13.7131    7.0202 C.3     1  UNL1       -0.0197
     47 H           3.1738   13.1220    6.3258 H       1  UNL1        0.0344
     48 C           3.5001   14.1834    8.1387 C.3     1  UNL1       -0.0586
     49 H           4.3580   14.6975    7.7104 H       1  UNL1        0.0235
     50 H           2.9988   14.8715    8.8135 H       1  UNL1        0.0235
     51 H           3.8569   13.3299    8.7098 H       1  UNL1        0.0235
     52 C           1.9945   14.9098    6.2557 C.3     1  UNL1       -0.0586
     53 H           2.7987   15.5305    5.8670 H       1  UNL1        0.0235
     54 H           1.3833   14.5747    5.4201 H       1  UNL1        0.0235
     55 H           1.3749   15.5178    6.9106 H       1  UNL1        0.0235
     56 C          -0.6127    9.7968    6.4522 C.3     1  UNL1       -0.0197
     57 H           0.1671    9.4734    5.7587 H       1  UNL1        0.0344
     58 C          -0.9343    8.6023    7.3501 C.3     1  UNL1       -0.0586
     59 H          -1.2261    7.7565    6.7323 H       1  UNL1        0.0235
     60 H          -0.0554    8.3192    7.9204 H       1  UNL1        0.0235
     61 H          -1.7477    8.8218    8.0365 H       1  UNL1        0.0235
     62 C          -1.8572   10.1970    5.6515 C.3     1  UNL1       -0.0586
     63 H          -2.1978    9.3573    5.0505 H       1  UNL1        0.0235
     64 H          -2.6624   10.4899    6.3214 H       1  UNL1        0.0235
     65 H          -1.6499   11.0323    4.9862 H       1  UNL1        0.0235
@<TRIPOS>BOND
     1    36    33    1
     2    13    12    1
     3    11    10    1
     4    35    33    1
     5    33    34    1
     6    33    27    1
     7    12    10   ar
     8    12    14   ar
     9    10     9   ar
    10    25    23    1
    11    15    14    1
    12     7     6    1
    13    31    29    1
    14    14    16   ar
    15     9    27    1
    16     9     8   ar
    17    27    29    1
    18    27    28    1
    19    26    23    1
    20    23    24    1
    21    23    17    1
    22    29    30    1
    23    29    32    1
    24    16     8   ar
    25    16    17    1
    26    22    19    1
    27     8     1    1
    28     6     1    1
    29     6     4    2
    30    17    19    1
    31    17    18    1
    32     1     3    1
    33    19    21    1
    34    19    20    1
    35     5     4    1
    36     4     2    1
    37    65    62    1
    38    63    62    1
    39    54    52    1
    40     3     2    1
    41    62    64    1
    42    62    56    1
    43     2    37    1
    44    57    56    1
    45    53    52    1
    46    52    55    1
    47    52    46    1
    48    47    46    1
    49    56    38    1
    50    56    58    1
    51    59    58    1
    52    37    38   ar
    53    37    45   ar
    54    46    45    1
    55    46    48    1
    56    38    39   ar
    57    58    60    1
    58    58    61    1
    59    45    43   ar
    60    49    48    1
    61    48    51    1
    62    48    50    1
    63    39    40    1
    64    39    41   ar
    65    43    41   ar
    66    43    44    1
    67    41    42    1
