@<TRIPOS>MOLECULE
3
 65 67 0 0 0
SMALL
GASTEIGER

@<TRIPOS>ATOM
      1 N           5.9716    4.8797    0.2002 N.pl3   1  UNL1       -0.2762
      2 N           4.5568    6.2305   -0.6791 N.pl3   1  UNL1       -0.2762
      3 C           5.1890    5.9481    0.4840 C.3     1  UNL1        0.1959
      4 C           4.9264    5.3436   -1.6590 C.2     1  UNL1        0.0131
      5 H           4.5350    5.4079   -2.6526 H       1  UNL1        0.0797
      6 C           5.8103    4.4918   -1.1077 C.2     1  UNL1        0.0131
      7 H           6.3306    3.6488   -1.5132 H       1  UNL1        0.0797
      8 C           6.9185    4.1759    0.9997 C.ar    1  UNL1        0.0424
      9 C           6.5539    2.9387    1.5375 C.ar    1  UNL1       -0.0231
     10 C           7.5245    2.2184    2.2252 C.ar    1  UNL1       -0.0565
     11 H           7.2741    1.2607    2.6543 H       1  UNL1        0.0621
     12 C           8.8101    2.7045    2.3525 C.ar    1  UNL1       -0.0611
     13 H           9.5521    2.1300    2.8870 H       1  UNL1        0.0618
     14 C           9.1600    3.9147    1.7815 C.ar    1  UNL1       -0.0565
     15 H          10.1758    4.2638    1.8717 H       1  UNL1        0.0621
     16 C           8.2253    4.6734    1.0900 C.ar    1  UNL1       -0.0231
     17 C           8.6059    5.9746    0.4133 C.3     1  UNL1       -0.0197
     18 H           7.7433    6.6506    0.4632 H       1  UNL1        0.0344
     19 C           8.9422    5.7132   -1.0599 C.3     1  UNL1       -0.0586
     20 H           9.2579    6.6385   -1.5359 H       1  UNL1        0.0235
     21 H           9.7535    4.9916   -1.1358 H       1  UNL1        0.0235
     22 H           8.0844    5.3278   -1.6040 H       1  UNL1        0.0235
     23 C           9.7918    6.6868    1.0666 C.3     1  UNL1       -0.0586
     24 H           9.8823    7.6873    0.6496 H       1  UNL1        0.0235
     25 H           9.6646    6.7835    2.1421 H       1  UNL1        0.0235
     26 H          10.7230    6.1595    0.8725 H       1  UNL1        0.0235
     27 C           5.1734    2.3568    1.3342 C.3     1  UNL1       -0.0197
     28 H           4.5214    3.1137    0.8895 H       1  UNL1        0.0344
     29 C           4.5153    1.9242    2.6449 C.3     1  UNL1       -0.0586
     30 H           3.5579    1.4565    2.4286 H       1  UNL1        0.0235
     31 H           5.1277    1.2139    3.1953 H       1  UNL1        0.0235
     32 H           4.3210    2.7879    3.2741 H       1  UNL1        0.0235
     33 C           5.2686    1.1676    0.3723 C.3     1  UNL1       -0.0586
     34 H           4.2741    0.7849    0.1568 H       1  UNL1        0.0235
     35 H           5.7340    1.4594   -0.5670 H       1  UNL1        0.0235
     36 H           5.8590    0.3658    0.8101 H       1  UNL1        0.0235
     37 C           3.6556    7.2748   -1.0509 C.ar    1  UNL1        0.0424
     38 C           4.1777    8.5289   -1.3848 C.ar    1  UNL1       -0.0231
     39 C           3.3226    9.4651   -1.9515 C.ar    1  UNL1       -0.0565
     40 H           3.7027   10.4364   -2.2253 H       1  UNL1        0.0621
     41 C           1.9973    9.1616   -2.1973 C.ar    1  UNL1       -0.0611
     42 H           1.3506    9.8972   -2.6518 H       1  UNL1        0.0618
     43 C           1.5043    7.9128   -1.8765 C.ar    1  UNL1       -0.0565
     44 H           0.4728    7.6808   -2.0906 H       1  UNL1        0.0621
     45 C           2.3197    6.9439   -1.3041 C.ar    1  UNL1       -0.0231
     46 C           1.7607    5.5655   -1.0374 C.3     1  UNL1       -0.0197
     47 H           2.5119    4.9649   -0.5202 H       1  UNL1        0.0344
     48 C           1.4048    4.8775   -2.3599 C.3     1  UNL1       -0.0586
     49 H           2.2642    4.8314   -3.0253 H       1  UNL1        0.0235
     50 H           1.0662    3.8621   -2.1687 H       1  UNL1        0.0235
     51 H           0.6086    5.4132   -2.8709 H       1  UNL1        0.0235
     52 C           0.5331    5.6190   -0.1266 C.3     1  UNL1       -0.0586
     53 H           0.1451    4.6135    0.0165 H       1  UNL1        0.0235
     54 H           0.8103    6.0107    0.8473 H       1  UNL1        0.0235
     55 H          -0.2567    6.2351   -0.5486 H       1  UNL1        0.0235
     56 C           5.6461    8.8507   -1.2385 C.3     1  UNL1       -0.0197
     57 H           6.1195    8.0747   -0.6317 H       1  UNL1        0.0344
     58 C           6.3086    8.8493   -2.6202 C.3     1  UNL1       -0.0586
     59 H           7.3704    9.0647   -2.5264 H       1  UNL1        0.0235
     60 H           6.1944    7.8793   -3.1005 H       1  UNL1        0.0235
     61 H           5.8598    9.6038   -3.2616 H       1  UNL1        0.0235
     62 C           5.8690   10.1851   -0.5268 C.3     1  UNL1       -0.0586
     63 H           6.9310   10.3297   -0.3426 H       1  UNL1        0.0235
     64 H           5.5136   11.0205   -1.1231 H       1  UNL1        0.0235
     65 H           5.3505   10.1906    0.4284 H       1  UNL1        0.0235
@<TRIPOS>BOND
     1    61    58    1
     2    60    58    1
     3    49    48    1
     4    51    48    1
     5     5     4    1
     6    42    41    1
     7    58    59    1
     8    58    56    1
     9    48    50    1
    10    48    46    1
    11    40    39    1
    12    41    39   ar
    13    41    43   ar
    14    44    43    1
    15    39    38   ar
    16    43    45   ar
    17     4     6    2
    18     4     2    1
    19    22    19    1
    20    20    19    1
    21     7     6    1
    22    38    56    1
    23    38    37   ar
    24    45    37   ar
    25    45    46    1
    26    56    57    1
    27    56    62    1
    28    21    19    1
    29    64    62    1
    30     6     1    1
    31    19    17    1
    32    37     2    1
    33    46    47    1
    34    46    52    1
    35     2     3    1
    36    35    33    1
    37    55    52    1
    38    62    63    1
    39    62    65    1
    40    52    53    1
    41    52    54    1
    42    34    33    1
    43     1     3    1
    44     1     8    1
    45    33    36    1
    46    33    27    1
    47    17    18    1
    48    17    23    1
    49    17    16    1
    50    24    23    1
    51    26    23    1
    52    28    27    1
    53     8    16   ar
    54     8     9   ar
    55    23    25    1
    56    16    14   ar
    57    27     9    1
    58    27    29    1
    59     9    10   ar
    60    14    15    1
    61    14    12   ar
    62    10    12   ar
    63    10    11    1
    64    12    13    1
    65    30    29    1
    66    29    31    1
    67    29    32    1
