@<TRIPOS>MOLECULE
2
 16 15 0 0 0
SMALL
GASTEIGER

@<TRIPOS>ATOM
      1 SI          0.8535   -2.8690   23.2313 Si      1  UNL1        0.0000
      2 C           1.7628   -1.2745   22.8002 C.3     1  UNL1        0.0000
      3 H           2.6217   -1.5170   22.1630 H       1  UNL1        0.0000
      4 H           2.1846   -0.8513   23.7224 H       1  UNL1        0.0000
      5 C          -0.4775   -2.5388   24.5668 C.3     1  UNL1        0.0000
      6 H          -0.0273   -2.2693   25.5168 H       1  UNL1        0.0000
      7 H          -1.0906   -3.4186   24.7364 H       1  UNL1        0.0000
      8 H          -1.1390   -1.7282   24.2729 H       1  UNL1        0.0000
      9 C           1.9778   -4.2761   23.9011 C.3     1  UNL1        0.0000
     10 H           2.7334   -4.5565   23.1737 H       1  UNL1        0.0000
     11 H           1.4071   -5.1682   24.1397 H       1  UNL1        0.0000
     12 H           2.4946   -3.9673   24.8043 H       1  UNL1        0.0000
     13 C          -0.0353   -3.5745   21.6857 C.3     1  UNL1        0.0000
     14 H          -0.7271   -2.8483   21.2618 H       1  UNL1        0.0000
     15 H          -0.6100   -4.4607   21.9387 H       1  UNL1        0.0000
     16 H           0.6705   -3.8610   20.9117 H       1  UNL1        0.0000
@<TRIPOS>BOND
     1    16    13    1
     2    14    13    1
     3    13    15    1
     4    13     1    1
     5     3     2    1
     6     2     1    1
     7     2     4    1
     8    10     9    1
     9     1     9    1
    10     1     5    1
    11     9    11    1
    12     9    12    1
    13     8     5    1
    14     5     7    1
    15     5     6    1
