@<TRIPOS>MOLECULE
5
 17 17 0 0 0
SMALL
GASTEIGER

@<TRIPOS>ATOM
      1 C           3.0551   -2.7798    1.3533 C.3     1  UNL1       -0.0579
      2 H           3.8037   -3.0543    2.1001 H       1  UNL1        0.0236
      3 H           3.5593   -2.7084    0.3879 H       1  UNL1        0.0236
      4 H           2.3267   -3.5966    1.2876 H       1  UNL1        0.0236
      5 C           2.3566   -1.4438    1.6791 C.3     1  UNL1       -0.0121
      6 H           1.7709   -1.1574    0.7872 H       1  UNL1        0.0352
      7 C           1.4115   -1.5155    2.8159 C.ar    1  UNL1       -0.0440
      8 C           1.4779   -2.4922    3.8213 C.ar    1  UNL1       -0.0583
      9 H           2.2413   -3.2553    3.7809 H       1  UNL1        0.0620
     10 C           0.5788   -2.5019    4.8724 C.ar    1  UNL1       -0.0615
     11 H           0.6581   -3.2674    5.6321 H       1  UNL1        0.0618
     12 C          -0.4261   -1.5529    4.9560 C.ar    1  UNL1       -0.0617
     13 H          -1.1298   -1.5690    5.7744 H       1  UNL1        0.0618
     14 C          -0.5232   -0.5863    3.9634 C.ar    1  UNL1       -0.0615
     15 H          -1.3123    0.1515    4.0072 H       1  UNL1        0.0618
     16 C           0.3744   -0.5685    2.9182 C.ar    1  UNL1       -0.0583
     17 H           0.2794    0.1879    2.1444 H       1  UNL1        0.0620
@<TRIPOS>BOND
     1     3     1    1
     2     6     5    1
     3     4     1    1
     4     1     5    1
     5     1     2    1
     6     5     7    1
     7    17    16    1
     8     7    16   ar
     9     7     8   ar
    10    16    14   ar
    11     9     8    1
    12     8    10   ar
    13    14    15    1
    14    14    12   ar
    15    10    12   ar
    16    10    11    1
    17    12    13    1
