@<TRIPOS>MOLECULE
2
 17 16 0 0 0
SMALL
GASTEIGER

@<TRIPOS>ATOM
      1 SI          7.6586   12.1763   10.5932 Si      1  UNL1        0.0000
      2 C           9.2096   11.4177    8.4625 C.3     1  UNL1        0.0000
      3 C           8.4502   12.5669    8.8814 C.3     1  UNL1        0.0000
      4 H           7.6867   12.8328    8.1447 H       1  UNL1        0.0000
      5 H           9.1113   13.4311    8.9856 H       1  UNL1        0.0000
      6 C           9.0920   11.8163   11.7955 C.3     1  UNL1        0.0000
      7 H           8.7437   11.5396   12.7857 H       1  UNL1        0.0000
      8 H           9.7591   12.6664   11.9015 H       1  UNL1        0.0000
      9 H           9.6738   10.9872   11.3932 H       1  UNL1        0.0000
     10 C           6.5708   10.6229   10.4030 C.3     1  UNL1        0.0000
     11 H           7.1871    9.8218    9.9976 H       1  UNL1        0.0000
     12 H           5.7387   10.7819    9.7238 H       1  UNL1        0.0000
     13 H           6.1636   10.2891   11.3522 H       1  UNL1        0.0000
     14 C           6.6250   13.6777   11.1668 C.3     1  UNL1        0.0000
     15 H           6.1731   13.4857   12.1339 H       1  UNL1        0.0000
     16 H           5.8235   13.8995   10.4699 H       1  UNL1        0.0000
     17 H           7.2347   14.5701   11.2617 H       1  UNL1        0.0000
@<TRIPOS>BOND
     1     4     3    1
     2     2     3    1
     3     3     5    1
     4     3     1    1
     5    12    10    1
     6    11    10    1
     7    10     1    1
     8    10    13    1
     9    16    14    1
    10     1    14    1
    11     1     6    1
    12    14    17    1
    13    14    15    1
    14     9     6    1
    15     6     8    1
    16     6     7    1
