@<TRIPOS>MOLECULE
2
 16 15 0 0 0
SMALL
GASTEIGER

@<TRIPOS>ATOM
      1 SI         -0.2205    7.8987   17.1184 Si      1  UNL1        0.0000
      2 C           0.6050    7.7907   15.4233 C.3     1  UNL1        0.0000
      3 H           1.6012    8.2435   15.4956 H       1  UNL1        0.0000
      4 H           0.0425    8.4215   14.7224 H       1  UNL1        0.0000
      5 C           1.0747    7.6516   18.5079 C.3     1  UNL1        0.0000
      6 H           1.6984    8.5335   18.6132 H       1  UNL1        0.0000
      7 H           1.7283    6.8104   18.3045 H       1  UNL1        0.0000
      8 H           0.5980    7.4735   19.4663 H       1  UNL1        0.0000
      9 C          -1.0903    9.5712   17.4726 C.3     1  UNL1        0.0000
     10 H          -1.8623    9.7730   16.7365 H       1  UNL1        0.0000
     11 H          -0.3859   10.3966   17.4417 H       1  UNL1        0.0000
     12 H          -1.5610    9.5788   18.4508 H       1  UNL1        0.0000
     13 C          -1.5767    6.5469   17.2649 C.3     1  UNL1        0.0000
     14 H          -1.2142    5.5639   16.9577 H       1  UNL1        0.0000
     15 H          -2.4305    6.7929   16.6393 H       1  UNL1        0.0000
     16 H          -1.9417    6.4614   18.2844 H       1  UNL1        0.0000
@<TRIPOS>BOND
     1     4     2    1
     2     2     3    1
     3     2     1    1
     4    15    13    1
     5    10     9    1
     6    14    13    1
     7     1    13    1
     8     1     9    1
     9     1     5    1
    10    13    16    1
    11    11     9    1
    12     9    12    1
    13     7     5    1
    14     5     6    1
    15     5     8    1
