@<TRIPOS>MOLECULE
2
 16 15 0 0 0
SMALL
GASTEIGER

@<TRIPOS>ATOM
      1 SI         -1.6665    5.6878   11.7571 Si      1  UNL1        0.0000
      2 C          -1.4982    5.2420   13.5729 C.3     1  UNL1        0.0000
      3 H          -1.7708    4.1915   13.7188 H       1  UNL1        0.0000
      4 H          -2.2162    5.8321   14.1553 H       1  UNL1        0.0000
      5 C          -0.6684    4.4302   10.7056 C.3     1  UNL1        0.0000
      6 H           0.2133    4.0847   11.2404 H       1  UNL1        0.0000
      7 H          -0.3495    4.8470    9.7545 H       1  UNL1        0.0000
      8 H          -1.2748    3.5579   10.4845 H       1  UNL1        0.0000
      9 C          -3.4401    5.7241   11.0303 C.3     1  UNL1        0.0000
     10 H          -3.9234    4.7577   11.1334 H       1  UNL1        0.0000
     11 H          -3.4417    5.9806    9.9750 H       1  UNL1        0.0000
     12 H          -4.0574    6.4532   11.5456 H       1  UNL1        0.0000
     13 C          -0.9426    7.4490   11.4874 C.3     1  UNL1        0.0000
     14 H          -1.5978    8.1961   11.9251 H       1  UNL1        0.0000
     15 H          -0.8429    7.6879   10.4323 H       1  UNL1        0.0000
     16 H           0.0352    7.5580   11.9551 H       1  UNL1        0.0000
@<TRIPOS>BOND
     1     7     5    1
     2    11     9    1
     3    15    13    1
     4     8     5    1
     5     5     6    1
     6     5     1    1
     7     9    10    1
     8     9    12    1
     9     9     1    1
    10    13     1    1
    11    13    14    1
    12    13    16    1
    13     1     2    1
    14     2     3    1
    15     2     4    1
