@<TRIPOS>MOLECULE
1
 4 3 0 0 0
SMALL
GASTEIGER

@<TRIPOS>ATOM
      1 C          22.0828    3.9110   -1.2911 C.3     1  UNL1       -0.0681
      2 H          21.6709    3.6970   -2.2858 H       1  UNL1        0.0227
      3 H          23.1174    3.5375   -1.2859 H       1  UNL1        0.0227
      4 H          22.1304    5.0043   -1.1806 H       1  UNL1        0.0227
@<TRIPOS>BOND
     1     2     1    1
     2     1     3    1
     3     1     4    1
