@<TRIPOS>MOLECULE
1
 4 3 0 0 0
SMALL
GASTEIGER

@<TRIPOS>ATOM
      1 C          20.4534    1.3386   -0.5827 C.3     1  UNL1       -0.0681
      2 H          19.8639    0.7312    0.1209 H       1  UNL1        0.0227
      3 H          21.3508    0.7522   -0.8395 H       1  UNL1        0.0227
      4 H          19.8633    1.4211   -1.5055 H       1  UNL1        0.0227
@<TRIPOS>BOND
     1     4     1    1
     2     3     1    1
     3     1     2    1
