@<TRIPOS>MOLECULE
2
 16 15 0 0 0
SMALL
GASTEIGER

@<TRIPOS>ATOM
      1 SI          7.9956    7.1234    6.8406 Si      1  UNL1        0.0000
      2 C           7.0429    6.1408    8.1435 C.3     1  UNL1        0.0000
      3 H           6.5937    6.8724    8.8362 H       1  UNL1        0.0000
      4 H           7.7902    5.6037    8.7539 H       1  UNL1        0.0000
      5 C           6.7598    8.1484    5.7909 C.3     1  UNL1        0.0000
      6 H           5.9156    7.5359    5.4781 H       1  UNL1        0.0000
      7 H           7.2302    8.5444    4.8966 H       1  UNL1        0.0000
      8 H           6.3654    8.9917    6.3499 H       1  UNL1        0.0000
      9 C           8.9470    5.9359    5.6803 C.3     1  UNL1        0.0000
     10 H           9.7691    5.4491    6.1955 H       1  UNL1        0.0000
     11 H           9.3622    6.4587    4.8244 H       1  UNL1        0.0000
     12 H           8.2899    5.1540    5.3080 H       1  UNL1        0.0000
     13 C           9.2816    8.3726    7.5376 C.3     1  UNL1        0.0000
     14 H           8.8112    9.1033    8.1892 H       1  UNL1        0.0000
     15 H           9.7790    8.9187    6.7418 H       1  UNL1        0.0000
     16 H          10.0500    7.8677    8.1156 H       1  UNL1        0.0000
@<TRIPOS>BOND
     1    11     9    1
     2     7     5    1
     3    12     9    1
     4     6     5    1
     5     9    10    1
     6     9     1    1
     7     5     8    1
     8     5     1    1
     9    15    13    1
    10     1    13    1
    11     1     2    1
    12    13    16    1
    13    13    14    1
    14     2     4    1
    15     2     3    1
