@<TRIPOS>MOLECULE
2
 15 14 0 0 0
SMALL
GASTEIGER

@<TRIPOS>ATOM
      1 N           0.1908   -4.1530   -3.0702 N.3     1  UNL1       -0.2219
      2 C           0.9365   -3.7308   -2.2680 C.3     1  UNL1        0.1072
      3 C          -0.5053   -4.8870   -4.0541 C.3     1  UNL1        0.0290
      4 C          -1.8012   -5.4130   -3.4277 C.3     1  UNL1       -0.0458
      5 C           0.3896   -6.0454   -4.5091 C.3     1  UNL1       -0.0458
      6 C          -0.8225   -3.9623   -5.2324 C.3     1  UNL1       -0.0458
      7 H          -2.4091   -4.5845   -3.0713 H       1  UNL1        0.0248
      8 H          -2.3695   -5.9740   -4.1649 H       1  UNL1        0.0248
      9 H          -1.5784   -6.0662   -2.5874 H       1  UNL1        0.0248
     10 H           0.6044   -6.7074   -3.6733 H       1  UNL1        0.0248
     11 H          -0.1043   -6.6162   -5.2912 H       1  UNL1        0.0248
     12 H           1.3319   -5.6604   -4.8917 H       1  UNL1        0.0248
     13 H           0.0969   -3.5979   -5.6840 H       1  UNL1        0.0248
     14 H          -1.3905   -4.5035   -5.9846 H       1  UNL1        0.0248
     15 H          -1.4095   -3.1100   -4.8973 H       1  UNL1        0.0248
@<TRIPOS>BOND
     1    14     6    1
     2    13     6    1
     3    11     5    1
     4     6    15    1
     5     6     3    1
     6    12     5    1
     7     5     3    1
     8     5    10    1
     9     8     4    1
    10     3     4    1
    11     3     1    1
    12     4     7    1
    13     4     9    1
    14     1     2    1
