@<TRIPOS>MOLECULE
2
 16 15 0 0 0
SMALL
GASTEIGER

@<TRIPOS>ATOM
      1 SI         -1.1536    4.9678    7.9188 Si      1  UNL1        0.0000
      2 C          -0.2525    5.4792    6.3461 C.3     1  UNL1        0.0000
      3 H           0.5691    4.7842    6.1505 H       1  UNL1        0.0000
      4 H          -0.9170    5.4237    5.4756 H       1  UNL1        0.0000
      5 C          -0.6888    3.1913    8.4848 C.3     1  UNL1        0.0000
      6 H          -1.1608    2.9380    9.4291 H       1  UNL1        0.0000
      7 H           0.3841    3.0897    8.6195 H       1  UNL1        0.0000
      8 H          -0.9976    2.4488    7.7554 H       1  UNL1        0.0000
      9 C          -0.6648    6.1496    9.3438 C.3     1  UNL1        0.0000
     10 H          -1.4216    6.1718   10.1211 H       1  UNL1        0.0000
     11 H          -0.5474    7.1621    8.9658 H       1  UNL1        0.0000
     12 H           0.2672    5.8484    9.8090 H       1  UNL1        0.0000
     13 C          -3.0587    5.0066    7.7441 C.3     1  UNL1        0.0000
     14 H          -3.5442    4.6486    8.6472 H       1  UNL1        0.0000
     15 H          -3.3959    4.3817    6.9230 H       1  UNL1        0.0000
     16 H          -3.4120    6.0142    7.5570 H       1  UNL1        0.0000
@<TRIPOS>BOND
     1     4     2    1
     2     3     2    1
     3     2     1    1
     4    15    13    1
     5    16    13    1
     6    13     1    1
     7    13    14    1
     8     8     5    1
     9     1     5    1
    10     1     9    1
    11     5     7    1
    12     5     6    1
    13    11     9    1
    14     9    12    1
    15     9    10    1
