@<TRIPOS>MOLECULE
2
 16 15 0 0 0
SMALL
GASTEIGER

@<TRIPOS>ATOM
      1 SI          7.2052    4.6749   -0.7530 Si      1  UNL1        0.0000
      2 C           8.4452    5.9581   -1.3125 C.3     1  UNL1        0.0000
      3 H           9.3433    5.4828   -1.7078 H       1  UNL1        0.0000
      4 H           8.7469    6.5599   -0.4601 H       1  UNL1        0.0000
      5 C           5.4074    5.3175   -0.9820 C.3     1  UNL1        0.0000
      6 H           5.4124    6.2228   -1.5836 H       1  UNL1        0.0000
      7 H           4.9625    5.5697   -0.0244 H       1  UNL1        0.0000
      8 H           4.7528    4.5927   -1.4592 H       1  UNL1        0.0000
      9 C           7.4222    3.0148   -1.7003 C.3     1  UNL1        0.0000
     10 H           8.0523    3.1518   -2.5724 H       1  UNL1        0.0000
     11 H           6.4778    2.5911   -2.0310 H       1  UNL1        0.0000
     12 H           7.9050    2.2734   -1.0717 H       1  UNL1        0.0000
     13 C           7.3709    4.2363    1.1068 C.3     1  UNL1        0.0000
     14 H           7.2348    5.1189    1.7235 H       1  UNL1        0.0000
     15 H           8.3528    3.8305    1.3308 H       1  UNL1        0.0000
     16 H           6.6329    3.5011    1.4157 H       1  UNL1        0.0000
@<TRIPOS>BOND
     1    10     9    1
     2    11     9    1
     3     3     2    1
     4     9    12    1
     5     9     1    1
     6     6     5    1
     7     8     5    1
     8     2     1    1
     9     2     4    1
    10     5     1    1
    11     5     7    1
    12     1    13    1
    13    13    15    1
    14    13    16    1
    15    13    14    1
