@<TRIPOS>MOLECULE
2
 16 15 0 0 0
SMALL
GASTEIGER

@<TRIPOS>ATOM
      1 SI          6.7745   10.0212   -2.3901 Si      1  UNL1        0.0000
      2 C           7.4027    8.5723   -1.3796 C.3     1  UNL1        0.0000
      3 H           6.5856    8.1098   -0.8177 H       1  UNL1        0.0000
      4 H           8.1348    8.8799   -0.6422 H       1  UNL1        0.0000
      5 C           7.5639   11.7104   -1.9381 C.3     1  UNL1        0.0000
      6 H           8.6480   11.6796   -1.9965 H       1  UNL1        0.0000
      7 H           7.3034   11.9946   -0.9238 H       1  UNL1        0.0000
      8 H           7.2234   12.5031   -2.5980 H       1  UNL1        0.0000
      9 C           4.8788   10.2896   -2.2826 C.3     1  UNL1        0.0000
     10 H           4.5986   10.6165   -1.2866 H       1  UNL1        0.0000
     11 H           4.3328    9.3742   -2.4884 H       1  UNL1        0.0000
     12 H           4.5340   11.0446   -2.9833 H       1  UNL1        0.0000
     13 C           7.1675    9.7327   -4.2607 C.3     1  UNL1        0.0000
     14 H           7.6716    8.7722   -4.4017 H       1  UNL1        0.0000
     15 H           7.8225   10.5028   -4.6574 H       1  UNL1        0.0000
     16 H           6.2707    9.7299   -4.8715 H       1  UNL1        0.0000
@<TRIPOS>BOND
     1    16    13    1
     2    15    13    1
     3    14    13    1
     4    13     1    1
     5    12     9    1
     6     8     5    1
     7    11     9    1
     8     1     9    1
     9     1     5    1
    10     1     2    1
    11     9    10    1
    12     6     5    1
    13     5     7    1
    14     2     3    1
    15     2     4    1
