@<TRIPOS>MOLECULE
2
 16 15 0 0 0
SMALL
GASTEIGER

@<TRIPOS>ATOM
      1 SI         -1.9668    9.4677    6.9959 Si      1  UNL1        0.0000
      2 C          -0.1064    9.1684    7.0888 C.3     1  UNL1        0.0000
      3 H           0.3928    9.8745    6.4077 H       1  UNL1        0.0000
      4 H           0.2545    9.4024    8.1000 H       1  UNL1        0.0000
      5 C          -2.8393    9.1837    8.6738 C.3     1  UNL1        0.0000
      6 H          -3.8782    9.4971    8.6305 H       1  UNL1        0.0000
      7 H          -2.8225    8.1362    8.9513 H       1  UNL1        0.0000
      8 H          -2.3630    9.7439    9.4723 H       1  UNL1        0.0000
      9 C          -2.3877   11.2639    6.4558 C.3     1  UNL1        0.0000
     10 H          -2.0253   11.9904    7.1768 H       1  UNL1        0.0000
     11 H          -1.9367   11.5035    5.4970 H       1  UNL1        0.0000
     12 H          -3.4593   11.4085    6.3565 H       1  UNL1        0.0000
     13 C          -2.7621    8.2962    5.7095 C.3     1  UNL1        0.0000
     14 H          -2.6607    8.6780    4.6993 H       1  UNL1        0.0000
     15 H          -2.2888    7.3205    5.7536 H       1  UNL1        0.0000
     16 H          -3.8222    8.1634    5.9006 H       1  UNL1        0.0000
@<TRIPOS>BOND
     1    14    13    1
     2    11     9    1
     3    13    15    1
     4    13    16    1
     5    13     1    1
     6    12     9    1
     7     3     2    1
     8     9     1    1
     9     9    10    1
    10     1     2    1
    11     1     5    1
    12     2     4    1
    13     6     5    1
    14     5     7    1
    15     5     8    1
