@<TRIPOS>MOLECULE
2
 15 14 0 0 0
SMALL
GASTEIGER

@<TRIPOS>ATOM
      1 SI          5.0218    0.6044   16.1456 Si      1  UNL1        0.0000
      2 C           3.0854    1.1027   13.8111 C.1     1  UNL1        0.0000
      3 C           3.7938    0.8695   14.7622 C.1     1  UNL1        0.0000
      4 C           6.5552   -0.2250   15.3729 C.3     1  UNL1        0.0000
      5 H           7.3397   -0.3665   16.1104 H       1  UNL1        0.0000
      6 H           6.9680    0.3765   14.5680 H       1  UNL1        0.0000
      7 H           6.3101   -1.2010   14.9638 H       1  UNL1        0.0000
      8 C           4.2022   -0.5064   17.4524 C.3     1  UNL1        0.0000
      9 H           4.8733   -0.6962   18.2847 H       1  UNL1        0.0000
     10 H           3.9184   -1.4668   17.0321 H       1  UNL1        0.0000
     11 H           3.3041   -0.0453   17.8520 H       1  UNL1        0.0000
     12 C           5.4276    2.3415   16.8162 C.3     1  UNL1        0.0000
     13 H           6.1337    2.2938   17.6398 H       1  UNL1        0.0000
     14 H           4.5307    2.8359   17.1780 H       1  UNL1        0.0000
     15 H           5.8622    2.9718   16.0454 H       1  UNL1        0.0000
@<TRIPOS>BOND
     1     2     3    3
     2     6     4    1
     3     3     1    1
     4     7     4    1
     5     4     5    1
     6     4     1    1
     7    15    12    1
     8     1    12    1
     9     1     8    1
    10    12    14    1
    11    12    13    1
    12    10     8    1
    13     8    11    1
    14     8     9    1
