@<TRIPOS>MOLECULE
2
 15 14 0 0 0
SMALL
GASTEIGER

@<TRIPOS>ATOM
      1 SI          1.3721   -4.5529    1.2299 Si      1  UNL1        0.0000
      2 C           0.8284   -2.4119    3.3732 C.1     1  UNL1        0.0000
      3 C           1.0606   -3.2373    2.5210 C.1     1  UNL1        0.0000
      4 C           0.6247   -3.8895   -0.3894 C.3     1  UNL1        0.0000
      5 H           1.1265   -2.9809   -0.7076 H       1  UNL1        0.0000
      6 H          -0.4290   -3.6546   -0.2684 H       1  UNL1        0.0000
      7 H           0.7140   -4.6137   -1.1933 H       1  UNL1        0.0000
      8 C           0.4758   -6.1264    1.8270 C.3     1  UNL1        0.0000
      9 H           0.8483   -6.4514    2.7941 H       1  UNL1        0.0000
     10 H           0.6170   -6.9476    1.1305 H       1  UNL1        0.0000
     11 H          -0.5931   -5.9585    1.9248 H       1  UNL1        0.0000
     12 C           3.2558   -4.8049    1.1225 C.3     1  UNL1        0.0000
     13 H           3.6712   -5.1150    2.0772 H       1  UNL1        0.0000
     14 H           3.7567   -3.8863    0.8312 H       1  UNL1        0.0000
     15 H           3.5109   -5.5648    0.3899 H       1  UNL1        0.0000
@<TRIPOS>BOND
     1     7     4    1
     2     5     4    1
     3     4     6    1
     4     4     1    1
     5    15    12    1
     6    14    12    1
     7    12     1    1
     8    12    13    1
     9    10     8    1
    10     1     8    1
    11     1     3    1
    12     8    11    1
    13     8     9    1
    14     3     2    3
