@<TRIPOS>MOLECULE
2
 17 16 0 0 0
SMALL
GASTEIGER

@<TRIPOS>ATOM
      1 SI          8.6832    2.9857   -1.6086 Si      1  UNL1        0.0000
      2 C           8.2917    5.3520    3.4857 C.1     1  UNL1        0.0000
      3 C           8.3662    4.8393    2.3803 C.1     1  UNL1        0.0000
      4 C           8.4549    4.2710    1.1558 C.1     1  UNL1        0.0000
      5 C           8.5423    3.7582    0.0531 C.1     1  UNL1        0.0000
      6 C           8.9248    1.1007   -1.4231 C.3     1  UNL1        0.0000
      7 H           9.8260    0.8742   -0.8608 H       1  UNL1        0.0000
      8 H           9.0085    0.6123   -2.3901 H       1  UNL1        0.0000
      9 H           8.0891    0.6483   -0.8971 H       1  UNL1        0.0000
     10 C           7.0957    3.3196   -2.6154 C.3     1  UNL1        0.0000
     11 H           6.2223    2.9064   -2.1193 H       1  UNL1        0.0000
     12 H           7.1518    2.8770   -3.6063 H       1  UNL1        0.0000
     13 H           6.9271    4.3853   -2.7401 H       1  UNL1        0.0000
     14 C          10.1811    3.7239   -2.5344 C.3     1  UNL1        0.0000
     15 H          10.0742    4.7975   -2.6598 H       1  UNL1        0.0000
     16 H          10.2946    3.2867   -3.5228 H       1  UNL1        0.0000
     17 H          11.1042    3.5489   -1.9893 H       1  UNL1        0.0000
@<TRIPOS>BOND
     1    12    10    1
     2    16    14    1
     3    13    10    1
     4    15    14    1
     5    10    11    1
     6    10     1    1
     7    14    17    1
     8    14     1    1
     9     8     6    1
    10     1     6    1
    11     1     5    1
    12     6     9    1
    13     6     7    1
    14     5     4    3
    15     4     3    1
    16     3     2    3
