@<TRIPOS>MOLECULE
2
 17 16 0 0 0
SMALL
GASTEIGER

@<TRIPOS>ATOM
      1 SI          8.0266    9.2692   12.0233 Si      1  UNL1        0.0000
      2 C           8.1300    6.9290    6.9032 C.1     1  UNL1        0.0000
      3 C           8.0966    7.4387    8.0119 C.1     1  UNL1        0.0000
      4 C           8.0669    8.0018    9.2416 C.1     1  UNL1        0.0000
      5 C           8.0471    8.5074   10.3508 C.1     1  UNL1        0.0000
      6 C           6.2275    9.6385   12.5447 C.3     1  UNL1        0.0000
      7 H           5.7503   10.3229   11.8494 H       1  UNL1        0.0000
      8 H           6.1832   10.0889   13.5327 H       1  UNL1        0.0000
      9 H           5.6322    8.7304   12.5702 H       1  UNL1        0.0000
     10 C           9.0213   10.8989   12.0001 C.3     1  UNL1        0.0000
     11 H          10.0525   10.7248   11.7074 H       1  UNL1        0.0000
     12 H           9.0323   11.3735   12.9776 H       1  UNL1        0.0000
     13 H           8.5967   11.6076   11.2951 H       1  UNL1        0.0000
     14 C           8.8140    8.0704   13.2839 C.3     1  UNL1        0.0000
     15 H           8.2714    7.1304   13.3231 H       1  UNL1        0.0000
     16 H           8.8172    8.4907   14.2859 H       1  UNL1        0.0000
     17 H           9.8425    7.8431   13.0191 H       1  UNL1        0.0000
@<TRIPOS>BOND
     1     2     3    3
     2     3     4    1
     3     4     5    3
     4     5     1    1
     5    13    10    1
     6    11    10    1
     7     7     6    1
     8    10     1    1
     9    10    12    1
    10     1     6    1
    11     1    14    1
    12     6     9    1
    13     6     8    1
    14    17    14    1
    15    14    15    1
    16    14    16    1
