@<TRIPOS>MOLECULE
2
 24 23 0 0 0
SMALL
GASTEIGER

@<TRIPOS>ATOM
      1 SI          2.2191   -2.6001    0.0461 Si      1  UNL1        0.0000
      2 C           1.3653   -2.6233    1.7110 C.3     1  UNL1        0.0000
      3 H           1.1570   -1.6010    2.0501 H       1  UNL1        0.0000
      4 C           3.4557   -4.0539   -0.1105 C.3     1  UNL1        0.0000
      5 H           4.0384   -3.9735   -1.0286 H       1  UNL1        0.0000
      6 H           2.9088   -4.9927   -0.1677 H       1  UNL1        0.0000
      7 C           4.4031   -4.1212    1.0796 C.3     1  UNL1        0.0000
      8 H           5.0308   -3.2338    1.1238 H       1  UNL1        0.0000
      9 H           3.8193   -4.1819    2.0036 H       1  UNL1        0.0000
     10 H           5.0488   -4.9957    1.0132 H       1  UNL1        0.0000
     11 C           3.2122   -0.9532   -0.1049 C.3     1  UNL1        0.0000
     12 H           3.8853   -0.8555    0.7487 H       1  UNL1        0.0000
     13 H           2.5219   -0.1110   -0.0423 H       1  UNL1        0.0000
     14 C           4.0280   -0.8259   -1.3871 C.3     1  UNL1        0.0000
     15 H           4.5453    0.1323   -1.4266 H       1  UNL1        0.0000
     16 H           4.7727   -1.6152   -1.4461 H       1  UNL1        0.0000
     17 H           3.3855   -0.9008   -2.2605 H       1  UNL1        0.0000
     18 C           0.9846   -2.6814   -1.4311 C.3     1  UNL1        0.0000
     19 H           1.5158   -2.9264   -2.3513 H       1  UNL1        0.0000
     20 H           0.2765   -3.4920   -1.2584 H       1  UNL1        0.0000
     21 C           0.2033   -1.3897   -1.6441 C.3     1  UNL1        0.0000
     22 H          -0.5240   -1.4995   -2.4476 H       1  UNL1        0.0000
     23 H           0.8727   -0.5743   -1.9038 H       1  UNL1        0.0000
     24 H          -0.3302   -1.1102   -0.7388 H       1  UNL1        0.0000
@<TRIPOS>BOND
     1    22    21    1
     2    19    18    1
     3    17    14    1
     4    23    21    1
     5    21    18    1
     6    21    24    1
     7    16    14    1
     8    18    20    1
     9    18     1    1
    10    15    14    1
    11    14    11    1
    12     5     4    1
    13     6     4    1
    14     4     1    1
    15     4     7    1
    16    11    13    1
    17    11     1    1
    18    11    12    1
    19     1     2    1
    20    10     7    1
    21     7     8    1
    22     7     9    1
    23     2     3    1
