@<TRIPOS>MOLECULE
2
 24 23 0 0 0
SMALL
GASTEIGER

@<TRIPOS>ATOM
      1 SI          2.1843   -2.5146    0.0338 Si      1  UNL1        0.0000
      2 C           1.1475   -2.5489    1.5804 C.3     1  UNL1        0.0000
      3 H           0.8242   -1.5328    1.8677 H       1  UNL1        0.0000
      4 C           3.4621   -3.9453    0.0149 C.3     1  UNL1        0.0000
      5 H           2.9525   -4.8845   -0.1864 H       1  UNL1        0.0000
      6 H           4.1921   -3.8062   -0.7827 H       1  UNL1        0.0000
      7 C           4.1899   -4.0748    1.3457 C.3     1  UNL1        0.0000
      8 H           4.8306   -4.9551    1.3542 H       1  UNL1        0.0000
      9 H           3.4465   -4.1654    2.1493 H       1  UNL1        0.0000
     10 H           4.8082   -3.1993    1.5322 H       1  UNL1        0.0000
     11 C           3.1625   -0.8484   -0.0362 C.3     1  UNL1        0.0000
     12 H           2.4623   -0.0161    0.0510 H       1  UNL1        0.0000
     13 H           3.8220   -0.7794    0.8309 H       1  UNL1        0.0000
     14 C           3.9948   -0.6532   -1.2984 C.3     1  UNL1        0.0000
     15 H           4.5288    0.2962   -1.2708 H       1  UNL1        0.0000
     16 H           3.3592   -0.6587   -2.1795 H       1  UNL1        0.0000
     17 H           4.7256   -1.4506   -1.4018 H       1  UNL1        0.0000
     18 C           1.1507   -2.6335   -1.5878 C.3     1  UNL1        0.0000
     19 H           1.8099   -2.6235   -2.4559 H       1  UNL1        0.0000
     20 H           0.6226   -3.5856   -1.6112 H       1  UNL1        0.0000
     21 C           0.1311   -1.5092   -1.7258 C.3     1  UNL1        0.0000
     22 H          -0.4467   -1.6103   -2.6438 H       1  UNL1        0.0000
     23 H           0.6258   -0.5416   -1.7414 H       1  UNL1        0.0000
     24 H          -0.5590   -1.5237   -0.8853 H       1  UNL1        0.0000
@<TRIPOS>BOND
     1    22    21    1
     2    19    18    1
     3    16    14    1
     4    23    21    1
     5    21    18    1
     6    21    24    1
     7    20    18    1
     8    18     1    1
     9    17    14    1
    10    14    15    1
    11    14    11    1
    12     6     4    1
    13     5     4    1
    14    11     1    1
    15    11    12    1
    16    11    13    1
    17     4     1    1
    18     4     7    1
    19     1     2    1
    20     7     8    1
    21     7    10    1
    22     7     9    1
    23     2     3    1
