@<TRIPOS>MOLECULE
2
 17 16 0 0 0
SMALL
GASTEIGER

@<TRIPOS>ATOM
      1 SI         -1.1770   -9.7975   -2.9077 Si      1  UNL1        0.0000
      2 C          -5.9309   -7.5964   -0.7709 C.1     1  UNL1        0.0000
      3 C          -4.8920   -8.0647   -1.2318 C.1     1  UNL1        0.0000
      4 C          -3.7576   -8.5878   -1.7447 C.1     1  UNL1        0.0000
      5 C          -2.7322   -9.0636   -2.2018 C.1     1  UNL1        0.0000
      6 C          -1.1207   -9.3468   -4.7568 C.3     1  UNL1        0.0000
      7 H          -1.9822   -9.7398   -5.2886 H       1  UNL1        0.0000
      8 H          -1.1047   -8.2709   -4.9041 H       1  UNL1        0.0000
      9 H          -0.2308   -9.7554   -5.2264 H       1  UNL1        0.0000
     10 C          -1.2696  -11.6827   -2.6555 C.3     1  UNL1        0.0000
     11 H          -0.3837  -12.1693   -3.0526 H       1  UNL1        0.0000
     12 H          -1.3413  -11.9408   -1.6030 H       1  UNL1        0.0000
     13 H          -2.1317  -12.1098   -3.1594 H       1  UNL1        0.0000
     14 C           0.2955   -9.0443   -1.9646 C.3     1  UNL1        0.0000
     15 H           0.2448   -9.2671   -0.9028 H       1  UNL1        0.0000
     16 H           1.2354   -9.4401   -2.3379 H       1  UNL1        0.0000
     17 H           0.3283   -7.9642   -2.0738 H       1  UNL1        0.0000
@<TRIPOS>BOND
     1     7     6    1
     2     9     6    1
     3     8     6    1
     4     6     1    1
     5    13    10    1
     6    11    10    1
     7     1    10    1
     8     1     5    1
     9     1    14    1
    10    10    12    1
    11    16    14    1
    12     5     4    3
    13    17    14    1
    14    14    15    1
    15     4     3    1
    16     3     2    3
