@<TRIPOS>MOLECULE
2
 17 16 0 0 0
SMALL
GASTEIGER

@<TRIPOS>ATOM
      1 SI        -13.7833   -3.8944    2.9588 Si      1  UNL1        0.0000
      2 C          -9.1140   -6.1949    0.7422 C.1     1  UNL1        0.0000
      3 C         -10.1401   -5.7108    1.2151 C.1     1  UNL1        0.0000
      4 C         -11.2561   -5.1667    1.7462 C.1     1  UNL1        0.0000
      5 C         -12.2619   -4.6677    2.2220 C.1     1  UNL1        0.0000
      6 C         -13.8250   -4.3636    4.8038 C.3     1  UNL1        0.0000
      7 H         -12.9430   -4.0045    5.3259 H       1  UNL1        0.0000
      8 H         -13.8736   -5.4400    4.9399 H       1  UNL1        0.0000
      9 H         -14.6937   -3.9317    5.2919 H       1  UNL1        0.0000
     10 C         -13.6343   -2.0102    2.7267 C.3     1  UNL1        0.0000
     11 H         -14.4979   -1.5003    3.1431 H       1  UNL1        0.0000
     12 H         -13.5707   -1.7421    1.6761 H       1  UNL1        0.0000
     13 H         -12.7513   -1.6165    3.2215 H       1  UNL1        0.0000
     14 C         -15.2935   -4.5895    2.0310 C.3     1  UNL1        0.0000
     15 H         -15.2516   -4.3568    0.9710 H       1  UNL1        0.0000
     16 H         -16.2144   -4.1677    2.4229 H       1  UNL1        0.0000
     17 H         -15.3596   -5.6690    2.1295 H       1  UNL1        0.0000
@<TRIPOS>BOND
     1     2     3    3
     2    15    14    1
     3     3     4    1
     4    12    10    1
     5     4     5    3
     6    14    17    1
     7    14    16    1
     8    14     1    1
     9     5     1    1
    10    10     1    1
    11    10    11    1
    12    10    13    1
    13     1     6    1
    14     6     8    1
    15     6     9    1
    16     6     7    1
