@<TRIPOS>MOLECULE
1
 28 27 0 0 0
SMALL
GASTEIGER

@<TRIPOS>ATOM
      1 C          -0.5849    7.0205    6.7382 C.3     1  UNL1        0.0000
      2 SI         -1.0954    6.1895    5.1182 Si      1  UNL1        0.0000
      3 C          -1.5993    7.5537    3.8540 C.3     1  UNL1        0.0000
      4 H          -2.1128    7.1277    2.9966 H       1  UNL1        0.0000
      5 H          -0.7227    8.0773    3.4707 H       1  UNL1        0.0000
      6 H          -2.2711    8.2874    4.2994 H       1  UNL1        0.0000
      7 C          -2.6088    5.0333    5.3227 C.3     1  UNL1        0.0000
      8 H          -2.8946    4.5670    4.3849 H       1  UNL1        0.0000
      9 H          -3.4722    5.5758    5.6947 H       1  UNL1        0.0000
     10 H          -2.3921    4.2413    6.0318 H       1  UNL1        0.0000
     11 C           0.2722    5.1650    4.2628 C.3     1  UNL1        0.0000
     12 H          -0.0617    4.8009    3.2960 H       1  UNL1        0.0000
     13 H           0.5432    4.3033    4.8619 H       1  UNL1        0.0000
     14 H           1.1716    5.7484    4.0984 H       1  UNL1        0.0000
     15 SI          0.7042    6.1373    7.8005 Si      1  UNL1        0.0000
     16 C           0.2445    4.3489    8.3077 C.3     1  UNL1        0.0000
     17 H           0.9910    3.9066    8.9601 H       1  UNL1        0.0000
     18 H           0.1526    3.7130    7.4335 H       1  UNL1        0.0000
     19 H          -0.7059    4.3218    8.8307 H       1  UNL1        0.0000
     20 C           2.4330    6.0596    6.9787 C.3     1  UNL1        0.0000
     21 H           3.2025    5.8508    7.7159 H       1  UNL1        0.0000
     22 H           2.6930    6.9932    6.4875 H       1  UNL1        0.0000
     23 H           2.4762    5.2715    6.2359 H       1  UNL1        0.0000
     24 C           0.8963    7.1524    9.4221 C.3     1  UNL1        0.0000
     25 H           1.7004    6.7648   10.0397 H       1  UNL1        0.0000
     26 H          -0.0106    7.1115   10.0181 H       1  UNL1        0.0000
     27 H           1.1152    8.2020    9.2164 H       1  UNL1        0.0000
     28 H          -1.4938    7.0877    7.3537 H       1  UNL1        0.0000
@<TRIPOS>BOND
     1     4     3    1
     2    12    11    1
     3     5     3    1
     4     3     6    1
     5     3     2    1
     6    14    11    1
     7    11    13    1
     8    11     2    1
     9     8     7    1
    10     2     7    1
    11     2     1    1
    12     7     9    1
    13     7    10    1
    14    23    20    1
    15    22    20    1
    16     1    28    1
    17     1    15    1
    18    20    21    1
    19    20    15    1
    20    18    16    1
    21    15    16    1
    22    15    24    1
    23    16    19    1
    24    16    17    1
    25    27    24    1
    26    24    26    1
    27    24    25    1
