@<TRIPOS>MOLECULE
1
 28 27 0 0 0
SMALL
GASTEIGER

@<TRIPOS>ATOM
      1 C          -1.7449   11.0558    6.7382 C.3     1  UNL1        0.0000
      2 SI         -2.2093   11.9134    5.1182 Si      1  UNL1        0.0000
      3 C          -0.7758   11.6678    3.8541 C.3     1  UNL1        0.0000
      4 H          -0.8880   12.3256    2.9968 H       1  UNL1        0.0000
      5 H          -0.7607   10.6469    3.4708 H       1  UNL1        0.0000
      6 H           0.1955   11.8826    4.2996 H       1  UNL1        0.0000
      7 C          -2.4539   13.8022    5.3228 C.3     1  UNL1        0.0000
      8 H          -2.7149   14.2828    4.3850 H       1  UNL1        0.0000
      9 H          -1.5524   14.2787    5.6948 H       1  UNL1        0.0000
     10 H          -3.2482   14.0105    6.0319 H       1  UNL1        0.0000
     11 C          -3.7803   11.2414    4.2626 C.3     1  UNL1        0.0000
     12 H          -3.9286   11.7128    3.2959 H       1  UNL1        0.0000
     13 H          -4.6621   11.4374    4.8617 H       1  UNL1        0.0000
     14 H          -3.7247   10.1709    4.0980 H       1  UNL1        0.0000
     15 SI         -3.1543   10.3810    7.8005 Si      1  UNL1        0.0000
     16 C          -4.4733   11.6734    8.3077 C.3     1  UNL1        0.0000
     17 H          -5.2296   11.2480    8.9601 H       1  UNL1        0.0000
     18 H          -4.9781   12.0708    7.4335 H       1  UNL1        0.0000
     19 H          -4.0216   12.5101    8.8306 H       1  UNL1        0.0000
     20 C          -4.0861    8.9227    6.9788 C.3     1  UNL1        0.0000
     21 H          -4.6536    8.3620    7.7153 H       1  UNL1        0.0000
     22 H          -3.4078    8.2292    6.4896 H       1  UNL1        0.0000
     23 H          -4.7886    9.2788    6.2343 H       1  UNL1        0.0000
     24 C          -2.3713    9.7071    9.4221 C.3     1  UNL1        0.0000
     25 H          -3.1091    9.2045   10.0396 H       1  UNL1        0.0000
     26 H          -1.9533   10.5129   10.0181 H       1  UNL1        0.0000
     27 H          -1.5718    8.9927    9.2164 H       1  UNL1        0.0000
     28 H          -1.2323   11.8093    7.3537 H       1  UNL1        0.0000
@<TRIPOS>BOND
     1     4     3    1
     2    12    11    1
     3     5     3    1
     4     3     6    1
     5     3     2    1
     6    14    11    1
     7    11    13    1
     8    11     2    1
     9     8     7    1
    10     2     7    1
    11     2     1    1
    12     7     9    1
    13     7    10    1
    14    23    20    1
    15    22    20    1
    16     1    28    1
    17     1    15    1
    18    20    21    1
    19    20    15    1
    20    18    16    1
    21    15    16    1
    22    15    24    1
    23    16    19    1
    24    16    17    1
    25    27    24    1
    26    24    26    1
    27    24    25    1
