@<TRIPOS>MOLECULE
3
 28 27 0 0 0
SMALL
GASTEIGER

@<TRIPOS>ATOM
      1 SI          3.3047   10.0160    5.1182 Si      1  UNL1        0.0000
      2 SI          2.4501   11.6005    7.8006 Si      1  UNL1        0.0000
      3 C           2.3298   10.0426    6.7381 C.3     1  UNL1        0.0000
      4 H           2.7259    9.2218    7.3535 H       1  UNL1        0.0000
      5 C           2.3752    8.8977    3.8538 C.3     1  UNL1        0.0000
      6 H           3.0010    8.6661    2.9964 H       1  UNL1        0.0000
      7 H           1.4835    9.3952    3.4705 H       1  UNL1        0.0000
      8 H           2.0756    7.9490    4.2991 H       1  UNL1        0.0000
      9 C           5.0627    9.2835    5.3228 C.3     1  UNL1        0.0000
     10 H           5.6094    9.2692    4.3850 H       1  UNL1        0.0000
     11 H           5.0246    8.2645    5.6948 H       1  UNL1        0.0000
     12 H           5.6402    9.8672    6.0319 H       1  UNL1        0.0000
     13 C           3.5083   11.7126    4.2626 C.3     1  UNL1        0.0000
     14 H           3.9907   11.6054    3.2959 H       1  UNL1        0.0000
     15 H           4.1189   12.3782    4.8618 H       1  UNL1        0.0000
     16 H           2.5534   12.1997    4.0979 H       1  UNL1        0.0000
     17 C           4.2289   12.0966    8.3077 C.3     1  UNL1        0.0000
     18 H           4.2385   12.9642    8.9601 H       1  UNL1        0.0000
     19 H           4.8254   12.3351    7.4335 H       1  UNL1        0.0000
     20 H           4.7276   11.2871    8.8306 H       1  UNL1        0.0000
     21 C           1.6531   13.1366    6.9790 C.3     1  UNL1        0.0000
     22 H           1.4526   13.9092    7.7152 H       1  UNL1        0.0000
     23 H           0.7126   12.8965    6.4910 H       1  UNL1        0.0000
     24 H           2.3120   13.5663    6.2335 H       1  UNL1        0.0000
     25 C           1.4750   11.2594    9.4221 C.3     1  UNL1        0.0000
     26 H           1.4087   12.1497   10.0396 H       1  UNL1        0.0000
     27 H           1.9639   10.4945   10.0183 H       1  UNL1        0.0000
     28 H           0.4566   10.9242    9.2165 H       1  UNL1        0.0000
@<TRIPOS>BOND
     1     6     5    1
     2    14    13    1
     3     7     5    1
     4     5     8    1
     5     5     1    1
     6    16    13    1
     7    13    15    1
     8    13     1    1
     9    10     9    1
    10     1     9    1
    11     1     3    1
    12     9    11    1
    13     9    12    1
    14    24    21    1
    15    23    21    1
    16     3     4    1
    17     3     2    1
    18    21    22    1
    19    21     2    1
    20    19    17    1
    21     2    17    1
    22     2    25    1
    23    17    20    1
    24    17    18    1
    25    28    25    1
    26    25    27    1
    27    25    26    1
