@<TRIPOS>MOLECULE
1
 28 27 0 0 0
SMALL
GASTEIGER

@<TRIPOS>ATOM
      1 C           2.4474   -0.0282   14.2256 C.3     1  UNL1        0.0000
      2 SI          3.3700    0.7120   12.7564 Si      1  UNL1        0.0000
      3 C           2.4947    2.3361   12.2117 C.3     1  UNL1        0.0000
      4 H           2.6664    2.5581   11.1624 H       1  UNL1        0.0000
      5 H           2.8657    3.1827   12.7802 H       1  UNL1        0.0000
      6 H           1.4184    2.2812   12.3721 H       1  UNL1        0.0000
      7 C           3.4568   -0.4169   11.2052 C.3     1  UNL1        0.0000
      8 H           4.2024   -1.1919   11.3339 H       1  UNL1        0.0000
      9 H           3.7340    0.1545   10.3235 H       1  UNL1        0.0000
     10 H           2.5084   -0.9032   11.0048 H       1  UNL1        0.0000
     11 C           5.1928    1.2140   13.0945 C.3     1  UNL1        0.0000
     12 H           5.7965    0.3439   13.3300 H       1  UNL1        0.0000
     13 H           5.2584    1.8916   13.9399 H       1  UNL1        0.0000
     14 H           5.6486    1.7097   12.2422 H       1  UNL1        0.0000
     15 SI          3.2792   -1.5325   15.0181 Si      1  UNL1        0.0000
     16 C           4.3034   -2.6482   13.8502 C.3     1  UNL1        0.0000
     17 H           4.6741   -3.5243   14.3738 H       1  UNL1        0.0000
     18 H           5.1608   -2.1158   13.4545 H       1  UNL1        0.0000
     19 H           3.7126   -2.9950   13.0107 H       1  UNL1        0.0000
     20 C           4.4974   -0.9684   16.3969 C.3     1  UNL1        0.0000
     21 H           3.9832   -0.3872   17.1570 H       1  UNL1        0.0000
     22 H           5.2792   -0.3399   15.9845 H       1  UNL1        0.0000
     23 H           4.9772   -1.8066   16.8933 H       1  UNL1        0.0000
     24 C           2.0634   -2.7285   15.9045 C.3     1  UNL1        0.0000
     25 H           1.5150   -3.3327   15.1892 H       1  UNL1        0.0000
     26 H           1.3420   -2.1915   16.5137 H       1  UNL1        0.0000
     27 H           2.6004   -3.4100   16.5588 H       1  UNL1        0.0000
     28 H           2.5029    0.7450   15.0074 H       1  UNL1        0.0000
@<TRIPOS>BOND
     1     9     7    1
     2    10     7    1
     3     4     3    1
     4     7     8    1
     5     7     2    1
     6     3     6    1
     7     3     2    1
     8     3     5    1
     9    14    11    1
    10     2    11    1
    11     2     1    1
    12    19    16    1
    13    11    12    1
    14    11    13    1
    15    18    16    1
    16    16    17    1
    17    16    15    1
    18     1    28    1
    19     1    15    1
    20    15    24    1
    21    15    20    1
    22    25    24    1
    23    24    26    1
    24    24    27    1
    25    22    20    1
    26    20    23    1
    27    20    21    1
