@<TRIPOS>MOLECULE
1
 28 27 0 0 0
SMALL
GASTEIGER

@<TRIPOS>ATOM
      1 C          -1.1993    2.1335   14.2257 C.3     1  UNL1        0.0000
      2 SI         -2.3016    2.5625   12.7565 Si      1  UNL1        0.0000
      3 C          -3.2705    0.9924   12.2118 C.3     1  UNL1        0.0000
      4 H          -3.5483    1.0300   11.1623 H       1  UNL1        0.0000
      5 H          -4.1894    0.8906   12.7802 H       1  UNL1        0.0000
      6 H          -2.6848    0.0877   12.3725 H       1  UNL1        0.0000
      7 C          -1.3674    3.2020   11.2053 C.3     1  UNL1        0.0000
      8 H          -1.0691    4.2353   11.3339 H       1  UNL1        0.0000
      9 H          -2.0008    3.1563   10.3235 H       1  UNL1        0.0000
     10 H          -0.4720    2.6239   11.0049 H       1  UNL1        0.0000
     11 C          -3.6478    3.8901   13.0945 C.3     1  UNL1        0.0000
     12 H          -3.1961    4.8480   13.3301 H       1  UNL1        0.0000
     13 H          -4.2675    3.6081   13.9399 H       1  UNL1        0.0000
     14 H          -4.3050    4.0370   12.2423 H       1  UNL1        0.0000
     15 SI         -0.3124    3.6061   15.0180 Si      1  UNL1        0.0000
     16 C           0.1417    5.0510   13.8501 C.3     1  UNL1        0.0000
     17 H           0.7151    5.8101   14.3737 H       1  UNL1        0.0000
     18 H          -0.7482    5.5273   13.4544 H       1  UNL1        0.0000
     19 H           0.7374    4.7127   13.0105 H       1  UNL1        0.0000
     20 C          -1.4098    4.3791   16.3969 C.3     1  UNL1        0.0000
     21 H          -1.6560    3.6432   17.1570 H       1  UNL1        0.0000
     22 H          -2.3451    4.7419   15.9845 H       1  UNL1        0.0000
     23 H          -0.9239    5.2137   16.8933 H       1  UNL1        0.0000
     24 C           1.3313    3.1513   15.9043 C.3     1  UNL1        0.0000
     25 H           2.1288    2.9785   15.1890 H       1  UNL1        0.0000
     26 H           1.2270    2.2580   16.5136 H       1  UNL1        0.0000
     27 H           1.6531    3.9572   16.5586 H       1  UNL1        0.0000
     28 H          -1.8967    1.7951   15.0075 H       1  UNL1        0.0000
@<TRIPOS>BOND
     1     9     7    1
     2    10     7    1
     3     4     3    1
     4     7     8    1
     5     7     2    1
     6     3     6    1
     7     3     2    1
     8     3     5    1
     9    14    11    1
    10     2    11    1
    11     2     1    1
    12    19    16    1
    13    11    12    1
    14    11    13    1
    15    18    16    1
    16    16    17    1
    17    16    15    1
    18     1    28    1
    19     1    15    1
    20    15    24    1
    21    15    20    1
    22    25    24    1
    23    24    26    1
    24    24    27    1
    25    22    20    1
    26    20    23    1
    27    20    21    1
