@<TRIPOS>MOLECULE
3
 28 27 0 0 0
SMALL
GASTEIGER

@<TRIPOS>ATOM
      1 SI         -1.0684   -3.2745   12.7564 Si      1  UNL1        0.0000
      2 SI         -2.9668   -2.0736   15.0180 Si      1  UNL1        0.0000
      3 C          -1.2480   -2.1054   14.2257 C.3     1  UNL1        0.0000
      4 H          -0.6063   -2.5401   15.0074 H       1  UNL1        0.0000
      5 C           0.7758   -3.3285   12.2118 C.3     1  UNL1        0.0000
      6 H           0.8822   -3.5879   11.1623 H       1  UNL1        0.0000
      7 H           1.3235   -4.0733   12.7802 H       1  UNL1        0.0000
      8 H           1.2664   -2.3689   12.3725 H       1  UNL1        0.0000
      9 C          -2.0893   -2.7851   11.2052 C.3     1  UNL1        0.0000
     10 H          -3.1333   -3.0434   11.3339 H       1  UNL1        0.0000
     11 H          -1.7331   -3.3109   10.3235 H       1  UNL1        0.0000
     12 H          -2.0363   -1.7207   11.0048 H       1  UNL1        0.0000
     13 C          -1.5450   -5.1041   13.0944 C.3     1  UNL1        0.0000
     14 H          -2.6004   -5.1919   13.3299 H       1  UNL1        0.0000
     15 H          -0.9910   -5.4998   13.9398 H       1  UNL1        0.0000
     16 H          -1.3436   -5.7467   12.2422 H       1  UNL1        0.0000
     17 C          -4.4451   -2.4027   13.8501 C.3     1  UNL1        0.0000
     18 H          -5.3891   -2.2857   14.3737 H       1  UNL1        0.0000
     19 H          -4.4127   -3.4115   13.4544 H       1  UNL1        0.0000
     20 H          -4.4500   -1.7177   13.0106 H       1  UNL1        0.0000
     21 C          -3.0874   -3.4106   16.3968 C.3     1  UNL1        0.0000
     22 H          -2.3270   -3.2560   17.1569 H       1  UNL1        0.0000
     23 H          -2.9341   -4.4020   15.9844 H       1  UNL1        0.0000
     24 H          -4.0532   -3.4071   16.8932 H       1  UNL1        0.0000
     25 C          -3.3946   -0.4228   15.9044 C.3     1  UNL1        0.0000
     26 H          -3.6437    0.3543   15.1892 H       1  UNL1        0.0000
     27 H          -2.5689   -0.0665   16.5137 H       1  UNL1        0.0000
     28 H          -4.2534   -0.5471   16.5588 H       1  UNL1        0.0000
@<TRIPOS>BOND
     1    11     9    1
     2    12     9    1
     3     6     5    1
     4     9    10    1
     5     9     1    1
     6     5     8    1
     7     5     1    1
     8     5     7    1
     9    16    13    1
    10     1    13    1
    11     1     3    1
    12    20    17    1
    13    13    14    1
    14    13    15    1
    15    19    17    1
    16    17    18    1
    17    17     2    1
    18     3     4    1
    19     3     2    1
    20     2    25    1
    21     2    21    1
    22    26    25    1
    23    25    27    1
    24    25    28    1
    25    23    21    1
    26    21    24    1
    27    21    22    1
