@<TRIPOS>MOLECULE
1
 17 16 0 0 0
SMALL
GASTEIGER

@<TRIPOS>ATOM
      1 C           2.3978    2.7966    6.1289 C.1     1  UNL1        0.0000
      2 C           2.8482    3.1640    7.2031 C.1     1  UNL1        0.0000
      3 C           3.3520    3.4803    8.4194 C.1     1  UNL1        0.0000
      4 C           3.7898    3.7264    9.5292 C.1     1  UNL1        0.0000
      5 C           3.7795    2.7022   12.4024 C.3     1  UNL1        0.0000
      6 C           6.3790    3.8844   11.1555 C.3     1  UNL1        0.0000
      7 C           3.9815    5.7599   11.8287 C.3     1  UNL1        0.0000
      8 SI          4.4758    4.0229   11.2099 Si      1  UNL1        0.0000
      9 H           4.1742    2.8218   13.4076 H       1  UNL1        0.0000
     10 H           4.0330    1.7011   12.0658 H       1  UNL1        0.0000
     11 H           2.6969    2.7627   12.4652 H       1  UNL1        0.0000
     12 H           6.8211    4.0279   12.1378 H       1  UNL1        0.0000
     13 H           6.8058    4.6292   10.4903 H       1  UNL1        0.0000
     14 H           6.6891    2.9087   10.7933 H       1  UNL1        0.0000
     15 H           4.3772    5.9583   12.8212 H       1  UNL1        0.0000
     16 H           2.9018    5.8666   11.8773 H       1  UNL1        0.0000
     17 H           4.3568    6.5327   11.1644 H       1  UNL1        0.0000
@<TRIPOS>BOND
     1     1     2    3
     2     2     3    1
     3     3     4    3
     4     4     8    1
     5    13     6    1
     6    14     6    1
     7     6     8    1
     8     6    12    1
     9    17     7    1
    10     8     7    1
    11     8     5    1
    12     7    16    1
    13     7    15    1
    14    10     5    1
    15     5    11    1
    16     5     9    1
