@<TRIPOS>MOLECULE
1
 17 16 0 0 0
SMALL
GASTEIGER

@<TRIPOS>ATOM
      1 C           1.0247    2.4548    3.7530 C.1     1  UNL1        0.0000
      2 C           2.2291    2.4659    3.5522 C.1     1  UNL1        0.0000
      3 C           3.5616    2.4355    3.3180 C.1     1  UNL1        0.0000
      4 C           4.7577    2.4123    3.0862 C.1     1  UNL1        0.0000
      5 SI          6.5589    2.3772    2.7192 Si      1  UNL1        0.0000
      6 C           7.1444    0.5660    2.5649 C.3     1  UNL1        0.0000
      7 C           6.8891    3.2883    1.0732 C.3     1  UNL1        0.0000
      8 C           7.5237    3.2367    4.1246 C.3     1  UNL1        0.0000
      9 H           8.2071    0.5057    2.3462 H       1  UNL1        0.0000
     10 H           6.6149    0.0494    1.7698 H       1  UNL1        0.0000
     11 H           6.9657    0.0180    3.4853 H       1  UNL1        0.0000
     12 H           7.9469    3.2985    0.8249 H       1  UNL1        0.0000
     13 H           6.5522    4.3195    1.1234 H       1  UNL1        0.0000
     14 H           6.3627    2.8132    0.2505 H       1  UNL1        0.0000
     15 H           8.5947    3.2262    3.9411 H       1  UNL1        0.0000
     16 H           7.3477    2.7443    5.0765 H       1  UNL1        0.0000
     17 H           7.2180    4.2733    4.2317 H       1  UNL1        0.0000
@<TRIPOS>BOND
     1    14     7    1
     2    12     7    1
     3     7    13    1
     4     7     5    1
     5    10     6    1
     6     9     6    1
     7     6     5    1
     8     6    11    1
     9     5     4    1
    10     5     8    1
    11     4     3    3
    12     3     2    1
    13     2     1    3
    14    15     8    1
    15     8    17    1
    16     8    16    1
