@<TRIPOS>MOLECULE
1
 17 16 0 0 0
SMALL
GASTEIGER

@<TRIPOS>ATOM
      1 C          -0.8163    5.7515    3.3574 C.1     1  UNL1        0.0000
      2 C          -3.5445    1.4073    7.3454 C.3     1  UNL1        0.0000
      3 C          -5.2999    3.9709    7.7238 C.3     1  UNL1        0.0000
      4 C          -2.5966    3.6798    9.2743 C.3     1  UNL1        0.0000
      5 C          -1.3979    5.2264    4.2851 C.1     1  UNL1        0.0000
      6 C          -2.0555    4.6378    5.3196 C.1     1  UNL1        0.0000
      7 C          -2.6269    4.1048    6.2497 C.1     1  UNL1        0.0000
      8 SI         -3.5204    3.2903    7.6508 Si      1  UNL1        0.0000
      9 H          -2.5375    1.0059    7.2812 H       1  UNL1        0.0000
     10 H          -4.0515    1.1683    6.4153 H       1  UNL1        0.0000
     11 H          -4.0582    0.8811    8.1452 H       1  UNL1        0.0000
     12 H          -5.3028    5.0456    7.8788 H       1  UNL1        0.0000
     13 H          -5.8661    3.5193    8.5339 H       1  UNL1        0.0000
     14 H          -5.8328    3.7728    6.7987 H       1  UNL1        0.0000
     15 H          -2.5573    4.7496    9.4562 H       1  UNL1        0.0000
     16 H          -1.5740    3.3154    9.2426 H       1  UNL1        0.0000
     17 H          -3.0838    3.2183   10.1288 H       1  UNL1        0.0000
@<TRIPOS>BOND
     1     1     5    3
     2     5     6    1
     3     6     7    3
     4     7     8    1
     5    10     2    1
     6    14     3    1
     7     9     2    1
     8     2     8    1
     9     2    11    1
    10     8     3    1
    11     8     4    1
    12     3    12    1
    13     3    13    1
    14    16     4    1
    15     4    15    1
    16     4    17    1
