@<TRIPOS>MOLECULE
3
 28 27 0 0 0
SMALL
GASTEIGER

@<TRIPOS>ATOM
      1 SI          4.1263    3.7984    9.3087 Si      1  UNL1        0.0000
      2 SI          4.4002    6.9862    8.7375 Si      1  UNL1        0.0000
      3 C           3.9354    5.5785    9.9089 C.3     1  UNL1        0.0000
      4 C           3.1478    2.6374   10.4909 C.3     1  UNL1        0.0000
      5 C           5.9344    3.1582    9.2927 C.3     1  UNL1        0.0000
      6 C           3.4300    3.5509    7.5451 C.3     1  UNL1        0.0000
      7 C           6.2016    6.9610    8.0810 C.3     1  UNL1        0.0000
      8 C           3.2502    7.0822    7.2050 C.3     1  UNL1        0.0000
      9 C           4.1446    8.6363    9.6907 C.3     1  UNL1        0.0000
     10 H           4.5514    5.6906   10.8103 H       1  UNL1        0.0000
     11 H           3.7212    2.4069   11.3841 H       1  UNL1        0.0000
     12 H           2.9015    1.6929   10.0153 H       1  UNL1        0.0000
     13 H           2.2041    3.0999   10.7989 H       1  UNL1        0.0000
     14 H           6.5491    3.7412    8.6159 H       1  UNL1        0.0000
     15 H           5.9923    2.1201    8.9807 H       1  UNL1        0.0000
     16 H           6.3807    3.2289   10.2792 H       1  UNL1        0.0000
     17 H           2.5204    4.1274    7.4195 H       1  UNL1        0.0000
     18 H           3.1961    2.5093    7.3489 H       1  UNL1        0.0000
     19 H           4.1388    3.8767    6.7914 H       1  UNL1        0.0000
     20 H           6.9143    6.8980    8.8963 H       1  UNL1        0.0000
     21 H           6.4375    7.8510    7.5060 H       1  UNL1        0.0000
     22 H           6.3646    6.1021    7.4389 H       1  UNL1        0.0000
     23 H           3.4782    6.3055    6.4841 H       1  UNL1        0.0000
     24 H           3.3485    8.0366    6.6955 H       1  UNL1        0.0000
     25 H           2.2100    6.9710    7.5056 H       1  UNL1        0.0000
     26 H           3.1181    8.7045   10.0566 H       1  UNL1        0.0000
     27 H           4.3364    9.5052    9.0676 H       1  UNL1        0.0000
     28 H           4.8052    8.7018   10.5497 H       1  UNL1        0.0000
@<TRIPOS>BOND
     1    23     8    1
     2    24     8    1
     3    19     6    1
     4     8    25    1
     5     8     2    1
     6    18     6    1
     7    17     6    1
     8    22     7    1
     9    21     7    1
    10     6     1    1
    11     7     2    1
    12     7    20    1
    13    14     5    1
    14     2     9    1
    15     2     3    1
    16    15     5    1
    17    27     9    1
    18     5     1    1
    19     5    16    1
    20     1     3    1
    21     1     4    1
    22     9    26    1
    23     9    28    1
    24     3    10    1
    25    12     4    1
    26     4    13    1
    27     4    11    1
