@<TRIPOS>MOLECULE
2
 16 15 0 0 0
SMALL
GASTEIGER

@<TRIPOS>ATOM
      1 SI          2.8193    1.4431    1.1708 Si      1  UNL1        0.0000
      2 C           1.2460    2.3199    1.7230 C.3     1  UNL1        0.0000
      3 C           2.8513   -0.3837    1.7512 C.3     1  UNL1        0.0000
      4 C           3.0523    1.3778   -0.7369 C.3     1  UNL1        0.0000
      5 C           4.3916    2.3004    1.8536 C.3     1  UNL1        0.0000
      6 H           0.4001    1.7536    1.3101 H       1  UNL1        0.0000
      7 H           1.2183    3.2914    1.2109 H       1  UNL1        0.0000
      8 H           2.7411   -0.4622    2.8277 H       1  UNL1        0.0000
      9 H           3.7903   -0.8581    1.4830 H       1  UNL1        0.0000
     10 H           2.0546   -0.9601    1.2912 H       1  UNL1        0.0000
     11 H           2.2306    0.8536   -1.2157 H       1  UNL1        0.0000
     12 H           3.9704    0.8706   -1.0177 H       1  UNL1        0.0000
     13 H           3.0895    2.3774   -1.1596 H       1  UNL1        0.0000
     14 H           4.5631    3.2564    1.3688 H       1  UNL1        0.0000
     15 H           5.2728    1.6893    1.6824 H       1  UNL1        0.0000
     16 H           4.3191    2.4787    2.9237 H       1  UNL1        0.0000
@<TRIPOS>BOND
     1    11     4    1
     2    13     4    1
     3    12     4    1
     4     4     1    1
     5     1     2    1
     6     1     3    1
     7     1     5    1
     8     7     2    1
     9    10     3    1
    10     6     2    1
    11    14     5    1
    12     9     3    1
    13    15     5    1
    14     3     8    1
    15     5    16    1
