@<TRIPOS>MOLECULE
2
 16 15 0 0 0
SMALL
GASTEIGER

@<TRIPOS>ATOM
      1 SI          2.8215    1.2071    7.1659 Si      1  UNL1        0.0000
      2 C           2.3830    1.2402    5.3369 C.3     1  UNL1        0.0000
      3 C           4.2250   -0.0436    7.5722 C.3     1  UNL1        0.0000
      4 C           1.3836    0.6641    8.3248 C.3     1  UNL1        0.0000
      5 C           3.4310    2.8928    7.8342 C.3     1  UNL1        0.0000
      6 H           2.0857    0.2156    5.0683 H       1  UNL1        0.0000
      7 H           3.3444    1.3853    4.8191 H       1  UNL1        0.0000
      8 H           3.9188   -1.0620    7.3501 H       1  UNL1        0.0000
      9 H           4.5168   -0.0112    8.6181 H       1  UNL1        0.0000
     10 H           5.1114    0.1630    6.9801 H       1  UNL1        0.0000
     11 H           0.6406    1.4439    8.4651 H       1  UNL1        0.0000
     12 H           1.7744    0.4190    9.3079 H       1  UNL1        0.0000
     13 H           0.8781   -0.2233    7.9548 H       1  UNL1        0.0000
     14 H           2.7497    3.6980    7.5805 H       1  UNL1        0.0000
     15 H           4.4026    3.1447    7.4220 H       1  UNL1        0.0000
     16 H           3.5309    2.8732    8.9157 H       1  UNL1        0.0000
@<TRIPOS>BOND
     1     7     2    1
     2     6     2    1
     3     2     1    1
     4    10     3    1
     5     1     3    1
     6     1     5    1
     7     1     4    1
     8     8     3    1
     9    15     5    1
    10     3     9    1
    11    14     5    1
    12     5    16    1
    13    13     4    1
    14     4    11    1
    15     4    12    1
