@<TRIPOS>MOLECULE
1
 14 14 0 0 0
SMALL
GASTEIGER

@<TRIPOS>ATOM
      1 C          20.9313   12.2583   12.2089 C.3     1  UNL1       -0.0237
      2 H          21.4336   11.2822   12.2789 H       1  UNL1        0.0316
      3 H          21.2195   12.7184   11.2523 H       1  UNL1        0.0316
      4 C          21.3854   13.1085   13.3256 C.ar    1  UNL1       -0.0470
      5 C          21.4384   12.6052   14.6364 C.ar    1  UNL1       -0.0586
      6 H          21.1302   11.5795   14.8153 H       1  UNL1        0.0620
      7 C          21.8737   13.3845   15.6877 C.ar    1  UNL1       -0.0615
      8 H          21.8999   12.9716   16.6870 H       1  UNL1        0.0618
      9 C          22.2836   14.6930   15.4717 C.ar    1  UNL1       -0.0617
     10 H          22.6308   15.3003   16.2947 H       1  UNL1        0.0618
     11 C          22.2509   15.2063   14.1858 C.ar    1  UNL1       -0.0615
     12 H          22.5739   16.2220   14.0036 H       1  UNL1        0.0618
     13 C          21.8114   14.4288   13.1304 C.ar    1  UNL1       -0.0586
     14 H          21.7925   14.8455   12.1316 H       1  UNL1        0.0620
@<TRIPOS>BOND
     1     3     1    1
     2    14    13    1
     3     1     2    1
     4     1     4    1
     5    13     4   ar
     6    13    11   ar
     7     4     5   ar
     8    12    11    1
     9    11     9   ar
    10     5     6    1
    11     5     7   ar
    12     9     7   ar
    13     9    10    1
    14     7     8    1
