@<TRIPOS>MOLECULE
2
 16 15 0 0 0
SMALL
GASTEIGER

@<TRIPOS>ATOM
      1 SI          3.8236    6.2324   10.8478 Si      1  UNL1        0.0000
      2 C           2.5330    4.8623   10.6904 C.3     1  UNL1        0.0000
      3 C           3.1374    7.8305   11.6533 C.3     1  UNL1        0.0000
      4 C           4.4532    6.7241    9.1061 C.3     1  UNL1        0.0000
      5 C           5.3545    5.7006   11.8814 C.3     1  UNL1        0.0000
      6 H           2.5978    4.1741   11.5458 H       1  UNL1        0.0000
      7 H           2.7758    4.2688    9.7972 H       1  UNL1        0.0000
      8 H           2.1482    8.0407   11.2485 H       1  UNL1        0.0000
      9 H           3.7717    8.6853   11.4347 H       1  UNL1        0.0000
     10 H           3.0579    7.7546   12.7337 H       1  UNL1        0.0000
     11 H           4.9438    5.8975    8.6018 H       1  UNL1        0.0000
     12 H           5.1584    7.5478    9.1530 H       1  UNL1        0.0000
     13 H           3.6147    7.0374    8.4909 H       1  UNL1        0.0000
     14 H           5.8583    4.8513   11.4314 H       1  UNL1        0.0000
     15 H           5.0729    5.4153   12.8905 H       1  UNL1        0.0000
     16 H           6.0773    6.5061   11.9598 H       1  UNL1        0.0000
@<TRIPOS>BOND
     1    13     4    1
     2    11     4    1
     3     4    12    1
     4     4     1    1
     5     7     2    1
     6     2     1    1
     7     2     6    1
     8     1     3    1
     9     1     5    1
    10     8     3    1
    11    14     5    1
    12     9     3    1
    13     3    10    1
    14     5    16    1
    15     5    15    1
