@<TRIPOS>MOLECULE
2
 16 15 0 0 0
SMALL
GASTEIGER

@<TRIPOS>ATOM
      1 SI         -1.6719    3.9300    8.4291 Si      1  UNL1        0.0000
      2 C          -0.1043    3.8711    9.4798 C.3     1  UNL1        0.0000
      3 C          -3.2579    4.4677    9.3713 C.3     1  UNL1        0.0000
      4 C          -2.0985    2.2019    7.6981 C.3     1  UNL1        0.0000
      5 C          -1.4470    5.0914    6.9211 C.3     1  UNL1        0.0000
      6 H           0.7113    3.5831    8.7988 H       1  UNL1        0.0000
      7 H          -0.1914    3.0503   10.2104 H       1  UNL1        0.0000
      8 H          -3.1074    5.3708    9.9546 H       1  UNL1        0.0000
      9 H          -3.5986    3.6893   10.0481 H       1  UNL1        0.0000
     10 H          -4.0676    4.6597    8.6726 H       1  UNL1        0.0000
     11 H          -1.2837    1.8171    7.0924 H       1  UNL1        0.0000
     12 H          -2.9810    2.2443    7.0674 H       1  UNL1        0.0000
     13 H          -2.2928    1.4751    8.4811 H       1  UNL1        0.0000
     14 H          -0.9521    6.0135    7.2158 H       1  UNL1        0.0000
     15 H          -2.3977    5.3546    6.4677 H       1  UNL1        0.0000
     16 H          -0.8351    4.6266    6.1542 H       1  UNL1        0.0000
@<TRIPOS>BOND
     1    16     5    1
     2    15     5    1
     3     5    14    1
     4     5     1    1
     5    12     4    1
     6    11     4    1
     7     4     1    1
     8     4    13    1
     9     1     3    1
    10     1     2    1
    11    10     3    1
    12     6     2    1
    13     3     8    1
    14     3     9    1
    15     2     7    1
