@<TRIPOS>MOLECULE
3
 28 27 0 0 0
SMALL
GASTEIGER

@<TRIPOS>ATOM
      1 SI         -1.6053    3.6166    5.7729 Si      1  UNL1        0.0000
      2 SI         -2.1341    0.5163    6.3946 Si      1  UNL1        0.0000
      3 C          -0.8688    1.9012    6.1472 C.3     1  UNL1        0.0000
      4 C          -3.3929    3.8670    6.4288 C.3     1  UNL1        0.0000
      5 C          -1.7226    4.0879    3.9153 C.3     1  UNL1        0.0000
      6 C          -0.6252    5.0095    6.6609 C.3     1  UNL1        0.0000
      7 C          -3.4823    0.3645    5.0333 C.3     1  UNL1        0.0000
      8 C          -3.0854    0.6622    8.0581 C.3     1  UNL1        0.0000
      9 C          -1.3248   -1.2296    6.5162 C.3     1  UNL1        0.0000
     10 H          -0.3837    2.0252    7.1268 H       1  UNL1        0.0000
     11 H          -4.0934    3.1664    5.9906 H       1  UNL1        0.0000
     12 H          -3.7483    4.8679    6.2061 H       1  UNL1        0.0000
     13 H          -3.4346    3.7418    7.5047 H       1  UNL1        0.0000
     14 H          -2.1694    3.3102    3.3047 H       1  UNL1        0.0000
     15 H          -2.3409    4.9741    3.8048 H       1  UNL1        0.0000
     16 H          -0.7450    4.3280    3.5112 H       1  UNL1        0.0000
     17 H           0.4315    4.7813    6.7372 H       1  UNL1        0.0000
     18 H          -0.7155    5.9434    6.1157 H       1  UNL1        0.0000
     19 H          -1.0055    5.1850    7.6627 H       1  UNL1        0.0000
     20 H          -2.4156    0.8959    8.8802 H       1  UNL1        0.0000
     21 H          -3.5937   -0.2650    8.3059 H       1  UNL1        0.0000
     22 H          -3.8340    1.4444    8.0189 H       1  UNL1        0.0000
     23 H          -3.2159   -0.3543    4.2650 H       1  UNL1        0.0000
     24 H          -4.4160    0.0287    5.4738 H       1  UNL1        0.0000
     25 H          -3.6793    1.3159    4.5515 H       1  UNL1        0.0000
     26 H          -1.0210   -1.4540    7.5339 H       1  UNL1        0.0000
     27 H          -2.0404   -1.9945    6.2291 H       1  UNL1        0.0000
     28 H          -0.4525   -1.3380    5.8774 H       1  UNL1        0.0000
@<TRIPOS>BOND
     1    14     5    1
     2    16     5    1
     3    15     5    1
     4     5     1    1
     5    23     7    1
     6    25     7    1
     7     7    24    1
     8     7     2    1
     9     1     3    1
    10     1     4    1
    11     1     6    1
    12    28     9    1
    13    11     4    1
    14    18     6    1
    15     3     2    1
    16     3    10    1
    17    12     4    1
    18    27     9    1
    19     2     9    1
    20     2     8    1
    21     4    13    1
    22     9    26    1
    23     6    17    1
    24     6    19    1
    25    22     8    1
    26     8    21    1
    27     8    20    1
