@<TRIPOS>MOLECULE
2
 16 15 0 0 0
SMALL
GASTEIGER

@<TRIPOS>ATOM
      1 SI          6.5451    6.1684    3.7619 Si      1  UNL1        0.0000
      2 C           6.6423    8.0053    3.3496 C.3     1  UNL1        0.0000
      3 H           6.7896    8.1500    2.2829 H       1  UNL1        0.0000
      4 H           7.5011    8.4740    3.8199 H       1  UNL1        0.0000
      5 C           7.0442    5.0241    2.3125 C.3     1  UNL1        0.0000
      6 H           6.3682    5.1214    1.4689 H       1  UNL1        0.0000
      7 H           7.0408    3.9817    2.6159 H       1  UNL1        0.0000
      8 H           8.0432    5.2591    1.9604 H       1  UNL1        0.0000
      9 C           7.6262    5.6513    5.2560 C.3     1  UNL1        0.0000
     10 H           8.6787    5.7950    5.0336 H       1  UNL1        0.0000
     11 H           7.4834    4.6017    5.4946 H       1  UNL1        0.0000
     12 H           7.4016    6.2219    6.1521 H       1  UNL1        0.0000
     13 C           4.7121    5.7756    4.1857 C.3     1  UNL1        0.0000
     14 H           4.4501    6.0680    5.2030 H       1  UNL1        0.0000
     15 H           4.4906    4.7170    4.0947 H       1  UNL1        0.0000
     16 H           4.0387    6.3000    3.4991 H       1  UNL1        0.0000
@<TRIPOS>BOND
     1     6     5    1
     2     8     5    1
     3     3     2    1
     4     5     7    1
     5     5     1    1
     6     2     1    1
     7     2     4    1
     8    16    13    1
     9     1    13    1
    10     1     9    1
    11    15    13    1
    12    13    14    1
    13    10     9    1
    14     9    11    1
    15     9    12    1
