@<TRIPOS>MOLECULE
11
 70 72 0 0 0
SMALL
GASTEIGER

@<TRIPOS>ATOM
      1 SI          6.3797    0.1384   -0.5392 Si      1  UNL1        0.0000
      2 SI          8.9793    0.6330    1.6611 Si      1  UNL1        0.0000
      3 C           6.3210    1.4928    0.7833 C.2     1  UNL1        0.0000
      4 C           7.4235    1.7106    1.6752 C.3     1  UNL1        0.0000
      5 C           6.9068    2.3192    2.8438 C.2     1  UNL1        0.0000
      6 H           7.5042    2.6747    3.6732 H       1  UNL1        0.0000
      7 C           5.5111    2.4980    2.7004 C.2     1  UNL1        0.0000
      8 C           5.1519    1.9648    1.4376 C.2     1  UNL1        0.0000
      9 H           4.1629    2.0096    0.9940 H       1  UNL1        0.0000
     10 C           6.9207   -1.2257    0.6714 C.2     1  UNL1        0.0000
     11 C           8.0245   -1.0075    1.6225 C.3     1  UNL1        0.0000
     12 C           8.2574   -2.2462    2.2704 C.2     1  UNL1        0.0000
     13 C           7.3499   -3.1839    1.7679 C.2     1  UNL1        0.0000
     14 H           7.2917   -4.2144    2.0708 H       1  UNL1        0.0000
     15 C           6.5308   -2.5778    0.8049 C.2     1  UNL1        0.0000
     16 C           4.6390   -0.0231   -1.3169 C.3     1  UNL1        0.0000
     17 H           4.3474    0.9216   -1.7658 H       1  UNL1        0.0000
     18 H           3.8818   -0.2956   -0.5881 H       1  UNL1        0.0000
     19 H           4.6333   -0.7686   -2.1043 H       1  UNL1        0.0000
     20 C           7.5922    0.4538   -1.9873 C.3     1  UNL1        0.0000
     21 H           8.2078   -0.4171   -2.1839 H       1  UNL1        0.0000
     22 H           8.2502    1.2904   -1.7879 H       1  UNL1        0.0000
     23 H           7.0412    0.6765   -2.8944 H       1  UNL1        0.0000
     24 C          10.2222    0.8766    0.2247 C.3     1  UNL1        0.0000
     25 H          10.1315    1.8639   -0.2140 H       1  UNL1        0.0000
     26 H          10.0813    0.1452   -0.5613 H       1  UNL1        0.0000
     27 H          11.2385    0.7769    0.5903 H       1  UNL1        0.0000
     28 C           9.9267    1.0006    3.2837 C.3     1  UNL1        0.0000
     29 H          10.8233    0.3968    3.3648 H       1  UNL1        0.0000
     30 H           9.3184    0.8185    4.1652 H       1  UNL1        0.0000
     31 H          10.2375    2.0406    3.3035 H       1  UNL1        0.0000
     32 C           4.6160    3.2592    3.6465 C.3     1  UNL1        0.0000
     33 H           3.5991    2.8560    3.5573 H       1  UNL1        0.0000
     34 C           5.0793    3.0498    5.0934 C.3     1  UNL1        0.0000
     35 H           5.3200    1.9976    5.2611 H       1  UNL1        0.0000
     36 H           4.2972    3.3312    5.7929 H       1  UNL1        0.0000
     37 H           5.9672    3.6356    5.3142 H       1  UNL1        0.0000
     38 C           4.5121    4.7654    3.2551 C.3     1  UNL1        0.0000
     39 C           3.8558    4.8782    1.8753 C.3     1  UNL1        0.0000
     40 H           3.6958    5.9238    1.6211 H       1  UNL1        0.0000
     41 H           2.8912    4.3740    1.8656 H       1  UNL1        0.0000
     42 H           4.4892    4.4377    1.1102 H       1  UNL1        0.0000
     43 C           3.6282    5.4977    4.2692 C.3     1  UNL1        0.0000
     44 H           3.4292    6.5104    3.9247 H       1  UNL1        0.0000
     45 H           4.1113    5.5642    5.2398 H       1  UNL1        0.0000
     46 H           2.6759    4.9844    4.3878 H       1  UNL1        0.0000
     47 C           5.8846    5.4375    3.1944 C.3     1  UNL1        0.0000
     48 H           6.5263    4.9338    2.4760 H       1  UNL1        0.0000
     49 H           6.3747    5.4295    4.1644 H       1  UNL1        0.0000
     50 H           5.7725    6.4746    2.8859 H       1  UNL1        0.0000
     51 C           9.3826   -2.5104    3.2350 C.3     1  UNL1        0.0000
     52 H           9.4413   -1.6732    3.9420 H       1  UNL1        0.0000
     53 C          10.7034   -2.5850    2.4581 C.3     1  UNL1        0.0000
     54 H          11.5390   -2.7267    3.1406 H       1  UNL1        0.0000
     55 H          10.8664   -1.6752    1.8864 H       1  UNL1        0.0000
     56 H          10.6758   -3.4236    1.7657 H       1  UNL1        0.0000
     57 C           9.1918   -3.7999    4.0327 C.3     1  UNL1        0.0000
     58 H           8.2406   -3.7998    4.5584 H       1  UNL1        0.0000
     59 H           9.9877   -3.9022    4.7677 H       1  UNL1        0.0000
     60 H           9.2265   -4.6648    3.3743 H       1  UNL1        0.0000
     61 C           5.4932   -3.2760   -0.0298 C.3     1  UNL1        0.0000
     62 H           4.8086   -2.5240   -0.4336 H       1  UNL1        0.0000
     63 C           6.1811   -3.9842   -1.2025 C.3     1  UNL1        0.0000
     64 H           6.7378   -3.2659   -1.8002 H       1  UNL1        0.0000
     65 H           5.4462   -4.4732   -1.8384 H       1  UNL1        0.0000
     66 H           6.8750   -4.7352   -0.8317 H       1  UNL1        0.0000
     67 C           4.6689   -4.2698    0.7893 C.3     1  UNL1        0.0000
     68 H           5.2996   -5.0547    1.1993 H       1  UNL1        0.0000
     69 H           3.9113   -4.7341    0.1616 H       1  UNL1        0.0000
     70 H           4.1657   -3.7542    1.6055 H       1  UNL1        0.0000
@<TRIPOS>BOND
     1    23    20    1
     2    21    20    1
     3    19    16    1
     4    20    22    1
     5    20     1    1
     6    65    63    1
     7    64    63    1
     8    17    16    1
     9    16    18    1
    10    16     1    1
    11    63    66    1
    12    63    61    1
    13    26    24    1
    14     1    10    1
    15     1     3    1
    16    62    61    1
    17    25    24    1
    18    61    67    1
    19    61    15    1
    20    69    67    1
    21    24    27    1
    22    24     2    1
    23    10    15    2
    24    10    11    1
    25     3     8    2
    26     3     4    1
    27    67    68    1
    28    67    70    1
    29    15    13    1
    30     9     8    1
    31    42    39    1
    32     8     7    1
    33    40    39    1
    34    11     2    1
    35    11    12    1
    36     2     4    1
    37     2    28    1
    38     4     5    1
    39    56    53    1
    40    13    14    1
    41    13    12    2
    42    41    39    1
    43    39    38    1
    44    55    53    1
    45    12    51    1
    46    53    54    1
    47    53    51    1
    48    48    47    1
    49     7     5    2
    50     7    32    1
    51     5     6    1
    52    50    47    1
    53    47    38    1
    54    47    49    1
    55    51    52    1
    56    51    57    1
    57    38    32    1
    58    38    43    1
    59    28    31    1
    60    28    29    1
    61    28    30    1
    62    60    57    1
    63    33    32    1
    64    32    34    1
    65    44    43    1
    66    57    58    1
    67    57    59    1
    68    43    46    1
    69    43    45    1
    70    34    35    1
    71    34    37    1
    72    34    36    1
