@<TRIPOS>MOLECULE
2
 19 19 0 0 0
SMALL
GASTEIGER

@<TRIPOS>ATOM
      1 N           1.7555    2.2901    6.3507 N.pl3   1  UNL1       -0.2365
      2 C           2.0437    2.1498    5.1952 C.3     1  UNL1        0.1354
      3 C           1.9111    2.9986    7.5127 C.ar    1  UNL1        0.0544
      4 C           2.8585    4.0247    7.6375 C.ar    1  UNL1       -0.0276
      5 C           2.9587    4.6815    8.8564 C.ar    1  UNL1       -0.0570
      6 H           3.6860    5.4739    8.9638 H       1  UNL1        0.0621
      7 C           2.1466    4.3434    9.9227 C.ar    1  UNL1       -0.0611
      8 H           2.2416    4.8682   10.8618 H       1  UNL1        0.0618
      9 C           1.2096    3.3328    9.7855 C.ar    1  UNL1       -0.0570
     10 H           0.5735    3.0706   10.6187 H       1  UNL1        0.0621
     11 C           1.0803    2.6503    8.5887 C.ar    1  UNL1       -0.0276
     12 C           3.7455    4.4245    6.4983 C.3     1  UNL1       -0.0379
     13 H           3.5056    3.8610    5.5981 H       1  UNL1        0.0278
     14 H           4.7886    4.2483    6.7588 H       1  UNL1        0.0278
     15 H           3.6288    5.4879    6.2937 H       1  UNL1        0.0278
     16 C           0.0669    1.5617    8.4122 C.3     1  UNL1       -0.0379
     17 H          -0.3387    1.2512    9.3717 H       1  UNL1        0.0278
     18 H           0.5159    0.7047    7.9136 H       1  UNL1        0.0278
     19 H          -0.7532    1.9109    7.7846 H       1  UNL1        0.0278
@<TRIPOS>BOND
     1     2     1    1
     2    13    12    1
     3    15    12    1
     4     1     3    1
     5    12    14    1
     6    12     4    1
     7     3     4   ar
     8     3    11   ar
     9     4     5   ar
    10    19    16    1
    11    18    16    1
    12    16    11    1
    13    16    17    1
    14    11     9   ar
    15     5     6    1
    16     5     7   ar
    17     9     7   ar
    18     9    10    1
    19     7     8    1
