@<TRIPOS>MOLECULE
16
 44 46 0 0 0
SMALL
GASTEIGER

@<TRIPOS>ATOM
      1 F           6.6253    3.6536    6.1254 F       1  UNL1        0.0000
      2 F           6.1895    3.0715    3.5866 F       1  UNL1        0.0000
      3 F           3.6471    2.5684    2.6745 F       1  UNL1        0.0000
      4 F           1.5607    2.6966    4.4487 F       1  UNL1        0.0000
      5 F           1.9799    3.2714    6.9963 F       1  UNL1        0.0000
      6 F           4.3755    0.9066    7.4470 F       1  UNL1        0.0000
      7 F           4.7330   -1.1923    9.0573 F       1  UNL1        0.0000
      8 F           5.3509   -0.8351   11.6974 F       1  UNL1        0.0000
      9 F           5.6084    1.7137   12.6781 F       1  UNL1        0.0000
     10 F           5.2343    3.8265   11.0704 F       1  UNL1        0.0000
     11 F           2.2204    2.8750    9.8900 F       1  UNL1        0.0000
     12 F           0.1362    4.3623   10.6271 F       1  UNL1        0.0000
     13 F           0.0099    7.0141    9.9672 F       1  UNL1        0.0000
     14 F           2.1089    8.1450    8.5968 F       1  UNL1        0.0000
     15 F           4.2505    6.7115    7.9404 F       1  UNL1        0.0000
     16 C           8.0200    5.9259   10.2633 C.3     1  UNL1        0.0000
     17 H           7.4530    5.7370   11.1883 H       1  UNL1        0.0000
     18 H           8.9857    6.3558   10.5495 H       1  UNL1        0.0000
     19 C           8.2099    4.6314    9.5573 C.2     1  UNL1        0.0000
     20 H           9.1684    4.1292    9.6668 H       1  UNL1        0.0000
     21 C           7.2484    4.0408    8.8402 C.2     1  UNL1        0.0000
     22 H           7.4135    3.0683    8.3961 H       1  UNL1        0.0000
     23 C           5.9433    4.7239    8.5509 C.3     1  UNL1        0.0000
     24 H           5.7199    5.3927    9.4217 H       1  UNL1        0.0000
     25 H           6.0981    5.3600    7.6521 H       1  UNL1        0.0000
     26 C           4.3276    3.4878    6.7096 C.ar    1  UNL1        0.0000
     27 C           5.3478    3.4131    5.7663 C.ar    1  UNL1        0.0000
     28 C           5.1460    3.1086    4.4246 C.ar    1  UNL1        0.0000
     29 C           3.8639    2.8561    3.9594 C.ar    1  UNL1        0.0000
     30 C           2.8114    2.9210    4.8628 C.ar    1  UNL1        0.0000
     31 C           3.0574    3.2293    6.1963 C.ar    1  UNL1        0.0000
     32 C           4.7658    2.4568    9.1951 C.ar    1  UNL1        0.0000
     33 C           4.6586    1.1504    8.7365 C.ar    1  UNL1        0.0000
     34 C           4.8466    0.0415    9.5578 C.ar    1  UNL1        0.0000
     35 C           5.1623    0.2177   10.8985 C.ar    1  UNL1        0.0000
     36 C           5.2898    1.5103   11.3937 C.ar    1  UNL1        0.0000
     37 C           5.0939    2.5863   10.5419 C.ar    1  UNL1        0.0000
     38 C           3.3106    4.6967    8.8436 C.ar    1  UNL1        0.0000
     39 C           2.2324    4.1680    9.5531 C.ar    1  UNL1        0.0000
     40 C           1.1300    4.9253    9.9403 C.ar    1  UNL1        0.0000
     41 C           1.0611    6.2751    9.6112 C.ar    1  UNL1        0.0000
     42 C           2.1192    6.8439    8.9152 C.ar    1  UNL1        0.0000
     43 C           3.2087    6.0553    8.5693 C.ar    1  UNL1        0.0000
     44 B           4.5874    3.8082    8.2999 B       1  UNL1        0.0000
@<TRIPOS>BOND
     1     3    29    1
     2     2    28    1
     3    29    28   ar
     4    29    30   ar
     5    28    27   ar
     6     4    30    1
     7    30    31   ar
     8    27     1    1
     9    27    26   ar
    10    31    26   ar
    11    31     5    1
    12    26    44    1
    13     6    33    1
    14    25    23    1
    15    15    43    1
    16    44    23    1
    17    44    38    1
    18    44    32    1
    19    22    21    1
    20    23    21    1
    21    23    24    1
    22    43    38   ar
    23    43    42   ar
    24    14    42    1
    25    33    32   ar
    26    33    34   ar
    27    21    19    2
    28    38    39   ar
    29    42    41   ar
    30     7    34    1
    31    32    37   ar
    32    39    11    1
    33    39    40   ar
    34    19    20    1
    35    19    16    1
    36    34    35   ar
    37    41    40   ar
    38    41    13    1
    39    40    12    1
    40    16    18    1
    41    16    17    1
    42    37    10    1
    43    37    36   ar
    44    35    36   ar
    45    35     8    1
    46    36     9    1
