@<TRIPOS>MOLECULE
24
 59 62 0 0 0
SMALL
GASTEIGER

@<TRIPOS>ATOM
      1 N           4.1040    9.1318    6.1423 N.pl3   1  UNL1       -0.2765
      2 C           5.3250    8.8564    6.8068 C.ar    1  UNL1        0.0414
      3 N           2.3657    9.0679    4.8936 N.pl3   1  UNL1       -0.3015
      4 C           6.2524    9.8724    7.0397 C.ar    1  UNL1       -0.0286
      5 N          -0.8124    7.7679    4.0283 N.ar    1  UNL1       -0.2500
      6 C           7.3988    9.5711    7.7644 C.ar    1  UNL1       -0.0541
      7 H           8.1258   10.3524    7.9352 H       1  UNL1        0.0623
      8 C           7.6264    8.3058    8.2806 C.ar    1  UNL1       -0.0498
      9 C           6.6634    7.3267    8.0778 C.ar    1  UNL1       -0.0541
     10 H           6.8045    6.3492    8.5156 H       1  UNL1        0.0623
     11 C           5.5125    7.5826    7.3520 C.ar    1  UNL1       -0.0286
     12 C           6.0496   11.2807    6.5649 C.3     1  UNL1       -0.0379
     13 H           5.2546   11.3532    5.8304 H       1  UNL1        0.0278
     14 H           6.9668   11.6627    6.1217 H       1  UNL1        0.0278
     15 H           5.7980   11.9240    7.4089 H       1  UNL1        0.0278
     16 C           8.8831    8.0059    9.0389 C.3     1  UNL1       -0.0397
     17 H           9.1899    8.8613    9.6366 H       1  UNL1        0.0278
     18 H           9.6901    7.7781    8.3419 H       1  UNL1        0.0278
     19 H           8.7485    7.1474    9.6922 H       1  UNL1        0.0278
     20 C           4.4513    6.5426    7.1887 C.3     1  UNL1       -0.0379
     21 H           4.6856    5.6591    7.7732 H       1  UNL1        0.0278
     22 H           4.3848    6.2663    6.1350 H       1  UNL1        0.0278
     23 H           3.4849    6.9305    7.5094 H       1  UNL1        0.0278
     24 C           3.6159    8.5648    4.9975 C.3     1  UNL1        0.1916
     25 C           3.1714    9.9654    6.7133 C.2     1  UNL1        0.0128
     26 H           3.3634   10.4946    7.6237 H       1  UNL1        0.0797
     27 C           2.0767    9.9186    5.9261 C.2     1  UNL1        0.0086
     28 H           1.1306   10.4121    6.0127 H       1  UNL1        0.0793
     29 C           1.3934    8.7071    3.9017 C.3     1  UNL1        0.0561
     30 H           1.9659    8.3383    3.0387 H       1  UNL1        0.0529
     31 H           0.8139    9.5834    3.6051 H       1  UNL1        0.0529
     32 C           0.4545    7.6423    4.3906 C.ar    1  UNL1        0.0592
     33 C           0.9139    6.5730    5.1549 C.ar    1  UNL1       -0.0388
     34 H           1.9587    6.5103    5.4188 H       1  UNL1        0.0636
     35 C           0.0064    5.6014    5.5370 C.ar    1  UNL1       -0.0580
     36 H           0.3266    4.7514    6.1230 H       1  UNL1        0.0619
     37 C          -1.3169    5.7278    5.1481 C.ar    1  UNL1       -0.0357
     38 H          -2.0516    4.9831    5.4123 H       1  UNL1        0.0639
     39 C          -1.6865    6.8352    4.3880 C.ar    1  UNL1        0.0718
     40 C          -3.0848    7.0095    3.9330 C.ar    1  UNL1        0.0062
     41 C          -4.1013    7.2588    4.8538 C.ar    1  UNL1       -0.0408
     42 C          -5.4061    7.3962    4.4003 C.ar    1  UNL1       -0.0553
     43 H          -6.1932    7.5928    5.1152 H       1  UNL1        0.0623
     44 C          -5.7186    7.2900    3.0548 C.ar    1  UNL1       -0.0499
     45 C          -4.6907    7.0509    2.1519 C.ar    1  UNL1       -0.0553
     46 H          -4.9221    6.9720    1.0987 H       1  UNL1        0.0623
     47 C          -3.3776    6.9144    2.5694 C.ar    1  UNL1       -0.0408
     48 C          -3.8039    7.3924    6.3194 C.3     1  UNL1       -0.0391
     49 H          -4.5743    7.9821    6.8110 H       1  UNL1        0.0278
     50 H          -2.8392    7.8694    6.4776 H       1  UNL1        0.0278
     51 H          -3.7769    6.4117    6.7949 H       1  UNL1        0.0278
     52 C          -7.1280    7.4525    2.5706 C.3     1  UNL1       -0.0397
     53 H          -7.8329    7.4015    3.3967 H       1  UNL1        0.0278
     54 H          -7.3772    6.6790    1.8467 H       1  UNL1        0.0278
     55 H          -7.2452    8.4187    2.0793 H       1  UNL1        0.0278
     56 C          -2.2831    6.6574    1.5789 C.3     1  UNL1       -0.0391
     57 H          -1.7497    5.7400    1.8258 H       1  UNL1        0.0278
     58 H          -1.5625    7.4729    1.6033 H       1  UNL1        0.0278
     59 H          -2.6852    6.5697    0.5728 H       1  UNL1        0.0278
@<TRIPOS>BOND
     1    59    56    1
     2    46    45    1
     3    56    58    1
     4    56    57    1
     5    56    47    1
     6    54    52    1
     7    55    52    1
     8    45    47   ar
     9    45    44   ar
    10    47    40   ar
    11    52    44    1
    12    52    53    1
    13    30    29    1
    14    44    42   ar
    15    31    29    1
    16    29    32    1
    17    29     3    1
    18    40    39    1
    19    40    41   ar
    20     5    39   ar
    21     5    32   ar
    22    39    37   ar
    23    32    33   ar
    24    42    41   ar
    25    42    43    1
    26    41    48    1
    27     3    24    1
    28     3    27    1
    29    24     1    1
    30    37    38    1
    31    37    35   ar
    32    33    34    1
    33    33    35   ar
    34    35    36    1
    35    13    12    1
    36    27    28    1
    37    27    25    2
    38    14    12    1
    39    22    20    1
    40     1    25    1
    41     1     2    1
    42    48    50    1
    43    48    51    1
    44    48    49    1
    45    12     4    1
    46    12    15    1
    47    25    26    1
    48     2     4   ar
    49     2    11   ar
    50     4     6   ar
    51    20    11    1
    52    20    23    1
    53    20    21    1
    54    11     9   ar
    55     6     7    1
    56     6     8   ar
    57     9     8   ar
    58     9    10    1
    59     8    16    1
    60    18    16    1
    61    16    17    1
    62    16    19    1
