@<TRIPOS>MOLECULE
24
 40 42 0 0 0
SMALL
GASTEIGER

@<TRIPOS>ATOM
      1 N           7.0525    0.1134   10.6010 N.pl3   1  UNL1       -0.2765
      2 C           5.8084    0.0433   11.2807 C.ar    1  UNL1        0.0414
      3 N           8.7348    0.6981    9.4056 N.pl3   1  UNL1       -0.3015
      4 C           4.6655    0.5344   10.6384 C.ar    1  UNL1       -0.0286
      5 N           9.9464    1.4814    6.2082 N.ar    1  UNL1       -0.2583
      6 C           3.4274    0.3318   11.2211 C.ar    1  UNL1       -0.0541
      7 H           2.5425    0.6917   10.7160 H       1  UNL1        0.0623
      8 C           3.2921   -0.3353   12.4323 C.ar    1  UNL1       -0.0498
      9 C           4.4354   -0.8091   13.0504 C.ar    1  UNL1       -0.0541
     10 H           4.3546   -1.3343   13.9914 H       1  UNL1        0.0623
     11 C           5.6960   -0.6472   12.4871 C.ar    1  UNL1       -0.0286
     12 C           4.7898    1.2626    9.3414 C.3     1  UNL1       -0.0379
     13 H           3.8110    1.4853    8.9280 H       1  UNL1        0.0278
     14 H           5.3549    0.6793    8.6162 H       1  UNL1        0.0278
     15 H           5.3195    2.2020    9.5282 H       1  UNL1        0.0278
     16 C           1.9402   -0.5125   13.0510 C.3     1  UNL1       -0.0397
     17 H           1.9727   -1.2329   13.8642 H       1  UNL1        0.0278
     18 H           1.2185   -0.8495   12.3094 H       1  UNL1        0.0278
     19 H           1.5897    0.4397   13.4486 H       1  UNL1        0.0278
     20 C           6.8760   -1.2335   13.2028 C.3     1  UNL1       -0.0379
     21 H           7.8150   -0.9468   12.7434 H       1  UNL1        0.0278
     22 H           6.8074   -2.3216   13.2082 H       1  UNL1        0.0278
     23 H           6.8819   -0.8995   14.2390 H       1  UNL1        0.0278
     24 C           7.7406    1.2103   10.1664 C.3     1  UNL1        0.1916
     25 C           7.6293   -1.0417   10.1236 C.2     1  UNL1        0.0128
     26 H           7.2310   -2.0099   10.3468 H       1  UNL1        0.0797
     27 C           8.6843   -0.6688    9.3697 C.2     1  UNL1        0.0086
     28 H           9.3907   -1.2546    8.8186 H       1  UNL1        0.0793
     29 C           9.6548    1.4589    8.6063 C.3     1  UNL1        0.0561
     30 H          10.6105    0.9383    8.5360 H       1  UNL1        0.0529
     31 H           9.7931    2.4149    9.1257 H       1  UNL1        0.0529
     32 C           9.1175    1.6876    7.2217 C.ar    1  UNL1        0.0585
     33 C           7.8024    2.1082    7.0408 C.ar    1  UNL1       -0.0388
     34 H           7.1824    2.2670    7.9120 H       1  UNL1        0.0636
     35 C           7.3451    2.3253    5.7550 C.ar    1  UNL1       -0.0586
     36 H           6.3322    2.6576    5.5794 H       1  UNL1        0.0619
     37 C           8.2160    2.1163    4.6940 C.ar    1  UNL1       -0.0436
     38 H           7.9022    2.2758    3.6744 H       1  UNL1        0.0633
     39 C           9.5049    1.6969    4.9802 C.ar    1  UNL1        0.0279
     40 H          10.2239    1.5180    4.1912 H       1  UNL1        0.0829
@<TRIPOS>BOND
     1    38    37    1
     2    40    39    1
     3    37    39   ar
     4    37    35   ar
     5    39     5   ar
     6    36    35    1
     7    35    33   ar
     8     5    32   ar
     9    33    32   ar
    10    33    34    1
    11    32    29    1
    12    30    29    1
    13    29    31    1
    14    29     3    1
    15    14    12    1
    16    28    27    1
    17    13    12    1
    18    12    15    1
    19    12     4    1
    20    27     3    1
    21    27    25    2
    22     3    24    1
    23    25    26    1
    24    25     1    1
    25    24     1    1
    26     1     2    1
    27     4     6   ar
    28     4     2   ar
    29     7     6    1
    30     6     8   ar
    31     2    11   ar
    32    18    16    1
    33     8     9   ar
    34     8    16    1
    35    11     9   ar
    36    11    20    1
    37    21    20    1
    38     9    10    1
    39    16    19    1
    40    16    17    1
    41    20    22    1
    42    20    23    1
