@<TRIPOS>MOLECULE
4
 42 43 0 0 0
SMALL
GASTEIGER

@<TRIPOS>ATOM
      1 SI          9.4664    6.6087   13.0076 Si      1  UNL1        0.0000
      2 C           8.1392    4.8547   14.9104 C.ar    1  UNL1        0.0000
      3 C           8.2860    5.2340   13.5567 C.ar    1  UNL1        0.0000
      4 C           8.5502    5.6512   16.0481 C.3     1  UNL1        0.0000
      5 C          10.8080    5.8507   11.9025 C.ar    1  UNL1        0.0000
      6 C           7.0316    2.7876   14.2226 C.ar    1  UNL1        0.0000
      7 C          11.5132    4.7188   12.3286 C.ar    1  UNL1        0.0000
      8 C           7.7038    4.4298   12.5730 C.ar    1  UNL1        0.0000
      9 C          12.4748    4.1433   11.5110 C.ar    1  UNL1        0.0000
     10 H          13.0054    3.2655   11.8552 H       1  UNL1        0.0000
     11 C           7.5286    3.6183   15.2163 C.ar    1  UNL1        0.0000
     12 H           7.6023    3.2352   16.2361 H       1  UNL1        0.0000
     13 C          11.1249    6.3979   10.6543 C.ar    1  UNL1        0.0000
     14 C           7.0724    3.2402   12.9122 C.ar    1  UNL1        0.0000
     15 H           6.6619    2.6165   12.1301 H       1  UNL1        0.0000
     16 C          12.7723    4.6672   10.2636 C.ar    1  UNL1        0.0000
     17 C           7.7806    4.8067   11.1241 C.3     1  UNL1        0.0000
     18 H           7.4656    5.8379   10.9778 H       1  UNL1        0.0000
     19 H           7.1411    4.1611   10.5260 H       1  UNL1        0.0000
     20 H           8.8022    4.7111   10.7576 H       1  UNL1        0.0000
     21 C          12.0907    5.8036    9.8560 C.ar    1  UNL1        0.0000
     22 H          12.3209    6.2367    8.8918 H       1  UNL1        0.0000
     23 C           6.5162    1.4083   14.5104 C.3     1  UNL1        0.0000
     24 H           6.5603    1.1770   15.5714 H       1  UNL1        0.0000
     25 H           7.1176    0.6735   13.9749 H       1  UNL1        0.0000
     26 H           5.4873    1.3007   14.1692 H       1  UNL1        0.0000
     27 C          11.2514    4.0924   13.6662 C.3     1  UNL1        0.0000
     28 H          11.1454    4.8492   14.4401 H       1  UNL1        0.0000
     29 H          12.0667    3.4258   13.9401 H       1  UNL1        0.0000
     30 H          10.3306    3.5100   13.6401 H       1  UNL1        0.0000
     31 C          13.8249    4.0473    9.3958 C.3     1  UNL1        0.0000
     32 H          14.7935    4.5050    9.6014 H       1  UNL1        0.0000
     33 H          13.5985    4.1993    8.3427 H       1  UNL1        0.0000
     34 H          13.9091    2.9802    9.5897 H       1  UNL1        0.0000
     35 C          10.4431    7.6325   10.1431 C.3     1  UNL1        0.0000
     36 H           9.3858    7.4447    9.9647 H       1  UNL1        0.0000
     37 H          10.8941    7.9563    9.2078 H       1  UNL1        0.0000
     38 H          10.5233    8.4418   10.8652 H       1  UNL1        0.0000
     39 H           9.0106    6.5966   15.7993 H       1  UNL1        0.0000
     40 H           8.6753    7.6432   12.3288 H       1  UNL1        0.0000
     41 H          10.1840    7.2784   14.1045 H       1  UNL1        0.0000
     42 H           9.1906    5.0875   16.7364 H       1  UNL1        0.0000
@<TRIPOS>BOND
     1    33    31    1
     2    22    21    1
     3    37    35    1
     4    31    34    1
     5    31    32    1
     6    31    16    1
     7    21    16   ar
     8    21    13   ar
     9    36    35    1
    10    35    13    1
    11    35    38    1
    12    16     9   ar
    13    19    17    1
    14    13     5   ar
    15    20    17    1
    16    18    17    1
    17    17     8    1
    18     9    10    1
    19     9     7   ar
    20     5     7   ar
    21     5     1    1
    22    15    14    1
    23     7    27    1
    24    40     1    1
    25     8    14   ar
    26     8     3   ar
    27    14     6   ar
    28     1     3    1
    29     1    41    1
    30     3     2   ar
    31    30    27    1
    32    27    29    1
    33    27    28    1
    34    25    23    1
    35    26    23    1
    36     6    23    1
    37     6    11   ar
    38    23    24    1
    39     2    11   ar
    40     2     4    1
    41    11    12    1
    42    39     4    1
    43     4    42    1
