@<TRIPOS>MOLECULE
2
 15 14 0 0 0
SMALL
GASTEIGER

@<TRIPOS>ATOM
      1 N          -5.7291    4.4319   14.3105 N.3     1  UNL1       -0.2219
      2 C          -4.7608    5.0842   14.3565 C.3     1  UNL1        0.1072
      3 C          -6.8511    3.5900   14.1623 C.3     1  UNL1        0.0290
      4 C          -7.6164    4.0323   12.9108 C.3     1  UNL1       -0.0458
      5 C          -6.3544    2.1491   14.0132 C.3     1  UNL1       -0.0458
      6 C          -7.7229    3.7380   15.4137 C.3     1  UNL1       -0.0458
      7 H          -7.9480    5.0636   13.0132 H       1  UNL1        0.0248
      8 H          -6.9772    3.9607   12.0336 H       1  UNL1        0.0248
      9 H          -8.4861    3.3972   12.7640 H       1  UNL1        0.0248
     10 H          -7.1997    1.4757   13.8971 H       1  UNL1        0.0248
     11 H          -5.7104    2.0610   13.1415 H       1  UNL1        0.0248
     12 H          -5.7859    1.8522   14.8918 H       1  UNL1        0.0248
     13 H          -8.0501    4.7693   15.5287 H       1  UNL1        0.0248
     14 H          -8.5985    3.0992   15.3343 H       1  UNL1        0.0248
     15 H          -7.1605    3.4531   16.3002 H       1  UNL1        0.0248
@<TRIPOS>BOND
     1     8     4    1
     2     9     4    1
     3     4     7    1
     4     4     3    1
     5    11     5    1
     6    10     5    1
     7     5     3    1
     8     5    12    1
     9     3     1    1
    10     3     6    1
    11     1     2    1
    12    14     6    1
    13     6    13    1
    14     6    15    1
