@<TRIPOS>MOLECULE
2
 15 14 0 0 0
SMALL
GASTEIGER

@<TRIPOS>ATOM
      1 N          -4.4597    8.3863   12.8308 N.3     1  UNL1       -0.2219
      2 C          -3.9703    7.5856   13.5291 C.3     1  UNL1        0.1072
      3 C          -5.2041    9.2477   11.9998 C.3     1  UNL1        0.0290
      4 C          -5.7829    8.4104   10.8544 C.3     1  UNL1       -0.0458
      5 C          -4.2714   10.3307   11.4576 C.3     1  UNL1       -0.0458
      6 C          -6.3215    9.8682   12.8467 C.3     1  UNL1       -0.0458
      7 H          -6.3495    9.0471   10.1798 H       1  UNL1        0.0248
      8 H          -4.9786    7.9323   10.2989 H       1  UNL1        0.0248
      9 H          -6.4401    7.6360   11.2447 H       1  UNL1        0.0248
     10 H          -3.7847   10.8607   12.2737 H       1  UNL1        0.0248
     11 H          -3.5034    9.8765   10.8369 H       1  UNL1        0.0248
     12 H          -4.8367   11.0409   10.8593 H       1  UNL1        0.0248
     13 H          -5.8955   10.4458   13.6642 H       1  UNL1        0.0248
     14 H          -6.9307   10.5258   12.2322 H       1  UNL1        0.0248
     15 H          -6.9570    9.0900   13.2652 H       1  UNL1        0.0248
@<TRIPOS>BOND
     1     7     4    1
     2     8     4    1
     3    11     5    1
     4     4     9    1
     5     4     3    1
     6    12     5    1
     7     5     3    1
     8     5    10    1
     9     3     1    1
    10     3     6    1
    11    14     6    1
    12     1     2    1
    13     6    15    1
    14     6    13    1
