@<TRIPOS>MOLECULE
2
 15 14 0 0 0
SMALL
GASTEIGER

@<TRIPOS>ATOM
      1 N          -4.7097    7.2368   17.1624 N.3     1  UNL1       -0.2219
      2 C          -4.0929    6.9127   16.2247 C.3     1  UNL1        0.1072
      3 C          -5.3554    7.6954   18.3295 C.3     1  UNL1        0.0290
      4 C          -5.5990    9.2005   18.1806 C.3     1  UNL1       -0.0458
      5 C          -4.4425    7.4092   19.5254 C.3     1  UNL1       -0.0458
      6 C          -6.6822    6.9409   18.4646 C.3     1  UNL1       -0.0458
      7 H          -4.6541    9.7241   18.0543 H       1  UNL1        0.0248
      8 H          -6.2222    9.4004   17.3114 H       1  UNL1        0.0248
      9 H          -6.0975    9.5849   19.0666 H       1  UNL1        0.0248
     10 H          -4.2494    6.3418   19.6075 H       1  UNL1        0.0248
     11 H          -3.4914    7.9221   19.4034 H       1  UNL1        0.0248
     12 H          -4.9138    7.7530   20.4425 H       1  UNL1        0.0248
     13 H          -7.2053    7.2664   19.3599 H       1  UNL1        0.0248
     14 H          -7.3153    7.1307   17.6003 H       1  UNL1        0.0248
     15 H          -6.5024    5.8703   18.5333 H       1  UNL1        0.0248
@<TRIPOS>BOND
     1     2     1    1
     2     1     3    1
     3     8     4    1
     4    14     6    1
     5     7     4    1
     6     4     3    1
     7     4     9    1
     8     3     6    1
     9     3     5    1
    10     6    15    1
    11     6    13    1
    12    11     5    1
    13     5    10    1
    14     5    12    1
