@<TRIPOS>MOLECULE
2
 16 15 0 0 0
SMALL
GASTEIGER

@<TRIPOS>ATOM
      1 SI          4.1787   -6.1699   -7.9709 Si      1  UNL1        0.0000
      2 C           4.3564   -5.0819   -6.4538 C.3     1  UNL1        0.0000
      3 H           4.2404   -5.7208   -5.5653 H       1  UNL1        0.0000
      4 H           3.5419   -4.3589   -6.4124 H       1  UNL1        0.0000
      5 C           4.4437   -5.2472   -9.6263 C.3     1  UNL1        0.0000
      6 H           5.3779   -4.6973   -9.6188 H       1  UNL1        0.0000
      7 H           3.6444   -4.5420   -9.8265 H       1  UNL1        0.0000
      8 H           4.4781   -5.9444  -10.4580 H       1  UNL1        0.0000
      9 C           2.4287   -6.9553   -8.0675 C.3     1  UNL1        0.0000
     10 H           2.2364   -7.5935   -7.2104 H       1  UNL1        0.0000
     11 H           2.3089   -7.5612   -8.9609 H       1  UNL1        0.0000
     12 H           1.6565   -6.1921   -8.0839 H       1  UNL1        0.0000
     13 C           5.4308   -7.6202   -7.9565 C.3     1  UNL1        0.0000
     14 H           5.5166   -8.0611   -6.9686 H       1  UNL1        0.0000
     15 H           6.4201   -7.2968   -8.2638 H       1  UNL1        0.0000
     16 H           5.1234   -8.4088   -8.6370 H       1  UNL1        0.0000
@<TRIPOS>BOND
     1     8     5    1
     2     7     5    1
     3     5     6    1
     4     5     1    1
     5    11     9    1
     6    16    13    1
     7    15    13    1
     8    12     9    1
     9     9     1    1
    10     9    10    1
    11     1    13    1
    12     1     2    1
    13    13    14    1
    14     2     4    1
    15     2     3    1
