@<TRIPOS>MOLECULE
1
 13 12 0 0 0
SMALL
GASTEIGER

@<TRIPOS>ATOM
      1 C          12.4560   13.6494   12.8148 C.3     1  UNL1       -0.0505
      2 H          13.0120   12.6930   12.8576 H       1  UNL1        0.0268
      3 H          13.2319   14.4372   12.7625 H       1  UNL1        0.0268
      4 C          11.7865   13.8246   14.1872 C.3     1  UNL1       -0.0467
      5 H          11.0086   13.0594   14.3211 H       1  UNL1        0.0295
      6 C          12.8077   13.6389   15.3205 C.3     1  UNL1       -0.0627
      7 H          12.3352   13.7464   16.2957 H       1  UNL1        0.0232
      8 H          13.5993   14.3823   15.2411 H       1  UNL1        0.0232
      9 H          13.2626   12.6517   15.2680 H       1  UNL1        0.0232
     10 C          11.1503   15.2105   14.3131 C.3     1  UNL1       -0.0627
     11 H          10.6613   15.3246   15.2800 H       1  UNL1        0.0232
     12 H          10.4152   15.3682   13.5241 H       1  UNL1        0.0232
     13 H          11.9174   15.9803   14.2310 H       1  UNL1        0.0232
@<TRIPOS>BOND
     1     3     1    1
     2     1     2    1
     3     1     4    1
     4    12    10    1
     5     4    10    1
     6     4     5    1
     7     4     6    1
     8    13    10    1
     9    10    11    1
    10     8     6    1
    11     9     6    1
    12     6     7    1
