@<TRIPOS>MOLECULE
1
 13 12 0 0 0
SMALL
GASTEIGER

@<TRIPOS>ATOM
      1 C           5.4551    1.8335    5.7395 C.3     1  UNL1       -0.0505
      2 H           4.9115    0.8715    5.8213 H       1  UNL1        0.0268
      3 H           6.5291    1.5715    5.7977 H       1  UNL1        0.0268
      4 C           5.1283    2.6084    7.0262 C.3     1  UNL1       -0.0467
      5 H           5.6609    3.5705    7.0217 H       1  UNL1        0.0295
      6 C           3.6256    2.8732    7.1422 C.3     1  UNL1       -0.0627
      7 H           3.2697    3.4461    6.2857 H       1  UNL1        0.0232
      8 H           3.4010    3.4252    8.0542 H       1  UNL1        0.0232
      9 H           3.0832    1.9285    7.1783 H       1  UNL1        0.0232
     10 C           5.5972    1.8316    8.2664 C.3     1  UNL1       -0.0627
     11 H           6.6687    1.6473    8.2196 H       1  UNL1        0.0232
     12 H           5.0893    0.8702    8.3239 H       1  UNL1        0.0232
     13 H           5.3851    2.3849    9.1800 H       1  UNL1        0.0232
@<TRIPOS>BOND
     1     1     3    1
     2     1     2    1
     3     1     4    1
     4     7     6    1
     5     5     4    1
     6     4     6    1
     7     4    10    1
     8     6     9    1
     9     6     8    1
    10    11    10    1
    11    10    12    1
    12    10    13    1
