@<TRIPOS>MOLECULE
2
 16 15 0 0 0
SMALL
GASTEIGER

@<TRIPOS>ATOM
      1 SI          5.9128    3.2222   13.0050 Si      1  UNL1        0.0000
      2 C           5.4443    4.8727   12.2200 C.3     1  UNL1        0.0000
      3 H           4.6310    5.3106   12.8085 H       1  UNL1        0.0000
      4 H           4.9936    4.6333   11.2490 H       1  UNL1        0.0000
      5 C           7.3205    2.4286   11.9746 C.3     1  UNL1        0.0000
      6 H           7.1645    2.5847   10.9102 H       1  UNL1        0.0000
      7 H           7.3881    1.3581   12.1416 H       1  UNL1        0.0000
      8 H           8.2786    2.8638   12.2413 H       1  UNL1        0.0000
      9 C           4.4747    1.9506   13.0697 C.3     1  UNL1        0.0000
     10 H           3.6311    2.3400   13.6312 H       1  UNL1        0.0000
     11 H           4.7784    1.0208   13.5407 H       1  UNL1        0.0000
     12 H           4.1185    1.7109   12.0727 H       1  UNL1        0.0000
     13 C           6.5333    3.4296   14.8039 C.3     1  UNL1        0.0000
     14 H           7.3552    4.1390   14.8531 H       1  UNL1        0.0000
     15 H           6.8895    2.4854   15.2048 H       1  UNL1        0.0000
     16 H           5.7437    3.7819   15.4603 H       1  UNL1        0.0000
@<TRIPOS>BOND
     1     6     5    1
     2     4     2    1
     3     5     7    1
     4     5     8    1
     5     5     1    1
     6    12     9    1
     7     2     3    1
     8     2     1    1
     9     1     9    1
    10     1    13    1
    11     9    11    1
    12     9    10    1
    13    13    14    1
    14    13    15    1
    15    13    16    1
