@<TRIPOS>MOLECULE
2
 16 15 0 0 0
SMALL
GASTEIGER

@<TRIPOS>ATOM
      1 SI          0.4536    0.5116   17.1718 Si      1  UNL1        0.0000
      2 C           1.9198    0.5876   15.9932 C.3     1  UNL1        0.0000
      3 H           1.7055   -0.1109   15.1721 H       1  UNL1        0.0000
      4 H           2.7871    0.1630   16.5131 H       1  UNL1        0.0000
      5 C          -0.2783   -1.2486   17.4112 C.3     1  UNL1        0.0000
      6 H          -0.6619   -1.6416   16.4745 H       1  UNL1        0.0000
      7 H          -1.0944   -1.2557   18.1275 H       1  UNL1        0.0000
      8 H           0.4766   -1.9416   17.7700 H       1  UNL1        0.0000
      9 C           0.9397    1.1096   18.9286 C.3     1  UNL1        0.0000
     10 H           1.6110    0.4023   19.4061 H       1  UNL1        0.0000
     11 H           0.0665    1.2100   19.5654 H       1  UNL1        0.0000
     12 H           1.4413    2.0718   18.9052 H       1  UNL1        0.0000
     13 C          -0.9724    1.6028   16.5049 C.3     1  UNL1        0.0000
     14 H          -0.7882    2.6550   16.7054 H       1  UNL1        0.0000
     15 H          -1.9262    1.3458   16.9563 H       1  UNL1        0.0000
     16 H          -1.0714    1.4799   15.4288 H       1  UNL1        0.0000
@<TRIPOS>BOND
     1     3     2    1
     2    16    13    1
     3     2     4    1
     4     2     1    1
     5     6     5    1
     6    13    14    1
     7    13    15    1
     8    13     1    1
     9     1     5    1
    10     1     9    1
    11     5     8    1
    12     5     7    1
    13    12     9    1
    14     9    10    1
    15     9    11    1
