@<TRIPOS>MOLECULE
3
 33 33 0 0 0
SMALL
GASTEIGER

@<TRIPOS>ATOM
      1 N           2.2352    6.1277    4.1575 N.pl3   1  UNL1       -0.3023
      2 N           3.4098    6.7338    5.8565 N.pl3   1  UNL1       -0.3023
      3 C           2.7350    5.6790    5.3301 C.3     1  UNL1        0.1874
      4 C           2.5875    7.4422    3.9429 C.2     1  UNL1        0.0222
      5 C           3.3384    7.8265    5.0131 C.2     1  UNL1        0.0222
      6 C           2.2138    8.2552    2.7524 C.3     1  UNL1       -0.0251
      7 H           1.1703    8.1096    2.4876 H       1  UNL1        0.0290
      8 H           2.8274    7.9917    1.8909 H       1  UNL1        0.0290
      9 H           2.3614    9.3105    2.9672 H       1  UNL1        0.0290
     10 C           3.9565    9.1620    5.2507 C.3     1  UNL1       -0.0251
     11 H           4.0935    9.6724    4.3004 H       1  UNL1        0.0290
     12 H           4.9299    9.0759    5.7247 H       1  UNL1        0.0290
     13 H           3.3199    9.7851    5.8808 H       1  UNL1        0.0290
     14 C           1.3887    5.2781    3.3413 C.3     1  UNL1        0.0199
     15 H           1.5338    4.2755    3.7719 H       1  UNL1        0.0495
     16 C          -0.0835    5.6510    3.5059 C.3     1  UNL1       -0.0467
     17 H          -0.3530    5.6091    4.5587 H       1  UNL1        0.0247
     18 H          -0.6974    4.9375    2.9640 H       1  UNL1        0.0247
     19 H          -0.3009    6.6481    3.1285 H       1  UNL1        0.0247
     20 C           1.8230    5.2279    1.8798 C.3     1  UNL1       -0.0467
     21 H           1.4618    6.0792    1.3093 H       1  UNL1        0.0247
     22 H           1.4284    4.3217    1.4307 H       1  UNL1        0.0247
     23 H           2.9071    5.1862    1.8154 H       1  UNL1        0.0247
     24 C           4.0100    6.6625    7.1743 C.3     1  UNL1        0.0199
     25 H           3.6989    5.6754    7.5431 H       1  UNL1        0.0495
     26 C           3.4608    7.7411    8.1093 C.3     1  UNL1       -0.0467
     27 H           3.9128    8.7095    7.9150 H       1  UNL1        0.0247
     28 H           3.6752    7.4734    9.1414 H       1  UNL1        0.0247
     29 H           2.3834    7.8317    7.9935 H       1  UNL1        0.0247
     30 C           5.5385    6.6829    7.1445 C.3     1  UNL1       -0.0467
     31 H           5.9109    5.8829    6.5139 H       1  UNL1        0.0247
     32 H           5.9183    6.5311    8.1522 H       1  UNL1        0.0247
     33 H           5.9299    7.6289    6.7795 H       1  UNL1        0.0247
@<TRIPOS>BOND
     1    21    20    1
     2    22    20    1
     3    23    20    1
     4    20    14    1
     5     8     6    1
     6     7     6    1
     7     6     9    1
     8     6     4    1
     9    18    16    1
    10    19    16    1
    11    14    16    1
    12    14    15    1
    13    14     1    1
    14    16    17    1
    15     4     1    1
    16     4     5    2
    17     1     3    1
    18    11    10    1
    19     5    10    1
    20     5     2    1
    21    10    12    1
    22    10    13    1
    23     3     2    1
    24     2    24    1
    25    31    30    1
    26    33    30    1
    27    30    24    1
    28    30    32    1
    29    24    25    1
    30    24    26    1
    31    27    26    1
    32    29    26    1
    33    26    28    1
