@<TRIPOS>MOLECULE
2
 15 14 0 0 0
SMALL
GASTEIGER

@<TRIPOS>ATOM
      1 SI          2.2043    0.5802    2.3618 Si      1  UNL1        0.0000
      2 C           2.6772    2.6529    4.5623 C.1     1  UNL1        0.0000
      3 C           2.5031    1.8284    3.6745 C.1     1  UNL1        0.0000
      4 C           1.7772    1.4089    0.6886 C.3     1  UNL1        0.0000
      5 H           0.8385    1.9524    0.7491 H       1  UNL1        0.0000
      6 H           1.6797    0.6764   -0.1082 H       1  UNL1        0.0000
      7 H           2.5484    2.1142    0.3923 H       1  UNL1        0.0000
      8 C           3.7454   -0.5195    2.0718 C.3     1  UNL1        0.0000
      9 H           4.5617    0.0501    1.6372 H       1  UNL1        0.0000
     10 H           3.5281   -1.3462    1.4004 H       1  UNL1        0.0000
     11 H           4.1025   -0.9423    3.0064 H       1  UNL1        0.0000
     12 C           0.7481   -0.5623    2.8422 C.3     1  UNL1        0.0000
     13 H           0.9659   -1.1022    3.7588 H       1  UNL1        0.0000
     14 H           0.5340   -1.2962    2.0695 H       1  UNL1        0.0000
     15 H          -0.1574    0.0128    3.0109 H       1  UNL1        0.0000
@<TRIPOS>BOND
     1     6     4    1
     2     7     4    1
     3     4     5    1
     4     4     1    1
     5    10     8    1
     6     9     8    1
     7    14    12    1
     8     8     1    1
     9     8    11    1
    10     1    12    1
    11     1     3    1
    12    12    15    1
    13    12    13    1
    14     3     2    3
