@<TRIPOS>MOLECULE
3
 33 33 0 0 0
SMALL
GASTEIGER

@<TRIPOS>ATOM
      1 N           5.5218    3.6352    5.3301 N.pl3   1  UNL1       -0.3023
      2 N           5.1126    3.0104    7.3632 N.pl3   1  UNL1       -0.3023
      3 C           4.5020    3.3944    6.2008 C.3     1  UNL1        0.1874
      4 C           6.7429    3.4022    5.9394 C.2     1  UNL1        0.0222
      5 C           6.4852    3.0082    7.2160 C.2     1  UNL1        0.0222
      6 C           8.0812    3.6207    5.3216 C.3     1  UNL1       -0.0251
      7 H           8.3620    4.6746    5.3620 H       1  UNL1        0.0290
      8 H           8.1073    3.2961    4.2864 H       1  UNL1        0.0290
      9 H           8.8325    3.0568    5.8695 H       1  UNL1        0.0290
     10 C           7.4634    2.6698    8.2864 C.3     1  UNL1       -0.0251
     11 H           8.4280    2.4373    7.8420 H       1  UNL1        0.0290
     12 H           7.1414    1.8058    8.8609 H       1  UNL1        0.0290
     13 H           7.6037    3.5087    8.9691 H       1  UNL1        0.0290
     14 C           5.2836    3.9866    3.9420 C.3     1  UNL1        0.0199
     15 H           4.1959    4.1025    3.8908 H       1  UNL1        0.0495
     16 C           5.9317    5.3082    3.5338 C.3     1  UNL1       -0.0467
     17 H           5.6381    6.1016    4.2152 H       1  UNL1        0.0247
     18 H           5.5870    5.5742    2.5377 H       1  UNL1        0.0247
     19 H           7.0155    5.2474    3.5080 H       1  UNL1        0.0247
     20 C           5.6559    2.8434    2.9991 C.3     1  UNL1       -0.0467
     21 H           6.7276    2.6737    2.9438 H       1  UNL1        0.0247
     22 H           5.2945    3.0729    2.0006 H       1  UNL1        0.0247
     23 H           5.1630    1.9356    3.3334 H       1  UNL1        0.0247
     24 C           4.3314    2.6469    8.5305 C.3     1  UNL1        0.0199
     25 H           3.3037    2.9390    8.2675 H       1  UNL1        0.0495
     26 C           4.3400    1.1376    8.7733 C.3     1  UNL1       -0.0467
     27 H           4.1429    0.6129    7.8410 H       1  UNL1        0.0247
     28 H           3.5624    0.8812    9.4881 H       1  UNL1        0.0247
     29 H           5.2933    0.7945    9.1679 H       1  UNL1        0.0247
     30 C           4.7186    3.4360    9.7798 C.3     1  UNL1       -0.0467
     31 H           5.6292    3.0598   10.2365 H       1  UNL1        0.0247
     32 H           3.9161    3.3585   10.5092 H       1  UNL1        0.0247
     33 H           4.8559    4.4860    9.5318 H       1  UNL1        0.0247
@<TRIPOS>BOND
     1    22    20    1
     2    18    16    1
     3    21    20    1
     4    20    23    1
     5    20    14    1
     6    19    16    1
     7    16    14    1
     8    16    17    1
     9    15    14    1
    10    14     1    1
    11     8     6    1
    12     6     7    1
    13     6     9    1
    14     6     4    1
    15     1     4    1
    16     1     3    1
    17     4     5    2
    18     3     2    1
    19     5     2    1
    20     5    10    1
    21     2    24    1
    22    27    26    1
    23    11    10    1
    24    25    24    1
    25    10    12    1
    26    10    13    1
    27    24    26    1
    28    24    30    1
    29    26    29    1
    30    26    28    1
    31    33    30    1
    32    30    31    1
    33    30    32    1
