@<TRIPOS>MOLECULE
2
 16 15 0 0 0
SMALL
GASTEIGER

@<TRIPOS>ATOM
      1 SI         -0.0292    2.5109    7.9815 Si      1  UNL1        0.0000
      2 C          -0.5748    2.9975    6.2434 C.3     1  UNL1        0.0000
      3 C          -1.5165    2.1699    9.1505 C.3     1  UNL1        0.0000
      4 C           1.0791    0.9352    8.0745 C.3     1  UNL1        0.0000
      5 C           0.9995    3.8902    8.8389 C.3     1  UNL1        0.0000
      6 H          -1.5623    3.4823    6.3219 H       1  UNL1        0.0000
      7 H           0.1127    3.7712    5.8632 H       1  UNL1        0.0000
      8 H          -1.2042    2.2271   10.1888 H       1  UNL1        0.0000
      9 H          -2.3091    2.8989    9.0123 H       1  UNL1        0.0000
     10 H          -1.9416    1.1834    8.9963 H       1  UNL1        0.0000
     11 H           2.1341    1.1920    8.0747 H       1  UNL1        0.0000
     12 H           0.8888    0.3945    8.9974 H       1  UNL1        0.0000
     13 H           0.9041    0.2503    7.2474 H       1  UNL1        0.0000
     14 H           1.3641    3.5737    9.8110 H       1  UNL1        0.0000
     15 H           0.4077    4.7877    8.9877 H       1  UNL1        0.0000
     16 H           1.8629    4.1665    8.2408 H       1  UNL1        0.0000
@<TRIPOS>BOND
     1     7     2    1
     2     2     6    1
     3     2     1    1
     4    13     4    1
     5     1     4    1
     6     1     5    1
     7     1     3    1
     8     4    11    1
     9     4    12    1
    10    16     5    1
    11     5    15    1
    12     5    14    1
    13    10     3    1
    14     9     3    1
    15     3     8    1
