@<TRIPOS>MOLECULE
2
 16 15 0 0 0
SMALL
GASTEIGER

@<TRIPOS>ATOM
      1 SI         -2.4476    2.5710    1.6392 Si      1  UNL1        0.0000
      2 C          -1.6878    3.0296    3.3025 C.3     1  UNL1        0.0000
      3 C          -4.3338    2.2226    1.7681 C.3     1  UNL1        0.0000
      4 C          -1.6792    1.0129    0.8026 C.3     1  UNL1        0.0000
      5 C          -2.2671    3.9692    0.3327 C.3     1  UNL1        0.0000
      6 H          -2.4692    3.5174    3.9088 H       1  UNL1        0.0000
      7 H          -0.9122    3.7953    3.1359 H       1  UNL1        0.0000
      8 H          -4.8077    2.3327    0.7977 H       1  UNL1        0.0000
      9 H          -4.8217    2.9174    2.4442 H       1  UNL1        0.0000
     10 H          -4.5435    1.2170    2.1166 H       1  UNL1        0.0000
     11 H          -2.4306    0.4893    0.2184 H       1  UNL1        0.0000
     12 H          -1.2699    0.3085    1.5237 H       1  UNL1        0.0000
     13 H          -0.8831    1.2843    0.1159 H       1  UNL1        0.0000
     14 H          -2.6478    3.6631   -0.6369 H       1  UNL1        0.0000
     15 H          -2.8105    4.8603    0.6309 H       1  UNL1        0.0000
     16 H          -1.2271    4.2525    0.1999 H       1  UNL1        0.0000
@<TRIPOS>BOND
     1    14     5    1
     2    13     4    1
     3    16     5    1
     4    11     4    1
     5     5    15    1
     6     5     1    1
     7     8     3    1
     8     4    12    1
     9     4     1    1
    10     1     3    1
    11     1     2    1
    12     3    10    1
    13     3     9    1
    14     7     2    1
    15     2     6    1
