@<TRIPOS>MOLECULE
3
 47 49 0 0 0
SMALL
GASTEIGER

@<TRIPOS>ATOM
      1 N           6.7385    2.6339    5.0229 N.pl3   1  UNL1       -0.2762
      2 N           6.7251    0.5277    4.7022 N.pl3   1  UNL1       -0.2762
      3 C           5.8914    1.5832    4.8876 C.3     1  UNL1        0.1959
      4 C           8.0538    2.2468    4.9228 C.2     1  UNL1        0.0131
      5 H           8.8626    2.9409    5.0214 H       1  UNL1        0.0797
      6 C           8.0459    0.9141    4.7215 C.2     1  UNL1        0.0131
      7 H           8.8500    0.2151    4.6231 H       1  UNL1        0.0797
      8 C           6.4120    3.9732    5.3472 C.ar    1  UNL1        0.0414
      9 C           5.9647    4.2665    6.6388 C.ar    1  UNL1       -0.0286
     10 C           5.7121    5.5881    6.9695 C.ar    1  UNL1       -0.0541
     11 H           5.3729    5.8271    7.9678 H       1  UNL1        0.0623
     12 C           5.9119    6.6163    6.0572 C.ar    1  UNL1       -0.0498
     13 C           6.3981    6.3015    4.7987 C.ar    1  UNL1       -0.0541
     14 H           6.5814    7.0912    4.0847 H       1  UNL1        0.0623
     15 C           6.6592    4.9899    4.4263 C.ar    1  UNL1       -0.0286
     16 C           7.2258    4.6947    3.0712 C.3     1  UNL1       -0.0379
     17 H           8.3163    4.7113    3.1069 H       1  UNL1        0.0278
     18 H           6.9012    5.4453    2.3552 H       1  UNL1        0.0278
     19 H           6.9070    3.7187    2.7155 H       1  UNL1        0.0278
     20 C           5.5992    8.0330    6.4316 C.3     1  UNL1       -0.0397
     21 H           6.1333    8.7316    5.7927 H       1  UNL1        0.0278
     22 H           5.8629    8.2282    7.4690 H       1  UNL1        0.0278
     23 H           4.5308    8.2206    6.3181 H       1  UNL1        0.0278
     24 C           5.8145    3.1765    7.6571 C.3     1  UNL1       -0.0379
     25 H           5.4686    3.5809    8.6049 H       1  UNL1        0.0278
     26 H           6.7735    2.6841    7.8212 H       1  UNL1        0.0278
     27 H           5.1061    2.4252    7.3116 H       1  UNL1        0.0278
     28 C           6.3964   -0.8485    4.6465 C.ar    1  UNL1        0.0414
     29 C           6.8225   -1.6194    3.5645 C.ar    1  UNL1       -0.0286
     30 C           6.6468   -2.9960    3.6173 C.ar    1  UNL1       -0.0541
     31 H           6.9886   -3.5971    2.7862 H       1  UNL1        0.0623
     32 C           6.0529   -3.6129    4.7064 C.ar    1  UNL1       -0.0498
     33 C           5.6058   -2.8189    5.7550 C.ar    1  UNL1       -0.0541
     34 H           5.1321   -3.2875    6.6056 H       1  UNL1        0.0623
     35 C           5.7733   -1.4449    5.7474 C.ar    1  UNL1       -0.0286
     36 C           5.3308   -0.6152    6.9114 C.3     1  UNL1       -0.0379
     37 H           4.9353   -1.2466    7.7016 H       1  UNL1        0.0278
     38 H           4.5595    0.0908    6.5924 H       1  UNL1        0.0278
     39 H           6.1662   -0.0403    7.3099 H       1  UNL1        0.0278
     40 C           5.8842   -5.1011    4.7645 C.3     1  UNL1       -0.0397
     41 H           4.8327   -5.3596    4.8860 H       1  UNL1        0.0278
     42 H           6.4267   -5.5096    5.6169 H       1  UNL1        0.0278
     43 H           6.2565   -5.5727    3.8583 H       1  UNL1        0.0278
     44 C           7.4661   -0.9988    2.3605 C.3     1  UNL1       -0.0379
     45 H           7.2812   -1.6093    1.4802 H       1  UNL1        0.0278
     46 H           8.5463   -0.9236    2.4901 H       1  UNL1        0.0278
     47 H           7.0703   -0.0023    2.1787 H       1  UNL1        0.0278
@<TRIPOS>BOND
     1    45    44    1
     2    47    44    1
     3    18    16    1
     4    44    46    1
     5    44    29    1
     6    19    16    1
     7    31    30    1
     8    16    17    1
     9    16    15    1
    10    29    30   ar
    11    29    28   ar
    12    30    32   ar
    13    43    40    1
    14    14    13    1
    15    15    13   ar
    16    15     8   ar
    17     7     6    1
    18    28     2    1
    19    28    35   ar
    20     2     6    1
    21     2     3    1
    22    32    40    1
    23    32    33   ar
    24     6     4    2
    25    40    41    1
    26    40    42    1
    27    13    12   ar
    28     3     1    1
    29     4     5    1
    30     4     1    1
    31     1     8    1
    32     8     9   ar
    33    35    33   ar
    34    35    36    1
    35    33    34    1
    36    21    20    1
    37    12    20    1
    38    12    10   ar
    39    23    20    1
    40    20    22    1
    41    38    36    1
    42     9    10   ar
    43     9    24    1
    44    36    39    1
    45    36    37    1
    46    10    11    1
    47    27    24    1
    48    24    26    1
    49    24    25    1
