@<TRIPOS>MOLECULE
1
 16 15 0 0 0
SMALL
GASTEIGER

@<TRIPOS>ATOM
      1 C           3.5089   -0.1111    3.9771 C.3     1  UNL1        0.0000
      2 SI          4.2703   -1.7454    3.3837 Si      1  UNL1        0.0000
      3 C           3.7260   -2.1681    1.6008 C.3     1  UNL1        0.0000
      4 C           3.6731   -3.1812    4.5119 C.3     1  UNL1        0.0000
      5 C           6.1806   -1.7172    3.4873 C.3     1  UNL1        0.0000
      6 H           2.4224   -0.1983    3.8535 H       1  UNL1        0.0000
      7 H           3.6678   -0.0641    5.0619 H       1  UNL1        0.0000
      8 H           4.1134   -1.4413    0.8966 H       1  UNL1        0.0000
      9 H           2.6446   -2.1686    1.5092 H       1  UNL1        0.0000
     10 H           4.0827   -3.1469    1.2953 H       1  UNL1        0.0000
     11 H           2.5915   -3.2709    4.4967 H       1  UNL1        0.0000
     12 H           3.9718   -3.0227    5.5435 H       1  UNL1        0.0000
     13 H           4.0841   -4.1352    4.1969 H       1  UNL1        0.0000
     14 H           6.5840   -0.9092    2.8874 H       1  UNL1        0.0000
     15 H           6.6118   -2.6454    3.1254 H       1  UNL1        0.0000
     16 H           6.5225   -1.5728    4.5073 H       1  UNL1        0.0000
@<TRIPOS>BOND
     1     8     3    1
     2    10     3    1
     3     9     3    1
     4     3     2    1
     5    14     5    1
     6    15     5    1
     7     2     5    1
     8     2     1    1
     9     2     4    1
    10     5    16    1
    11     6     1    1
    12     1     7    1
    13    13     4    1
    14    11     4    1
    15     4    12    1
