@<TRIPOS>MOLECULE
1
 4 3 0 0 0
SMALL
GASTEIGER

@<TRIPOS>ATOM
      1 C           8.8589    5.0939    5.7407 C.3     1  UNL1       -0.0681
      2 H           8.0846    5.7387    6.1901 H       1  UNL1        0.0227
      3 H           8.3213    4.2818    5.2235 H       1  UNL1        0.0227
      4 H           9.3804    5.6819    4.9687 H       1  UNL1        0.0227
@<TRIPOS>BOND
     1     4     1    1
     2     3     1    1
     3     1     2    1
