@<TRIPOS>MOLECULE
1
 11 11 0 0 0
SMALL
GASTEIGER

@<TRIPOS>ATOM
      1 C           5.8161    2.7605    4.4375 C.ar    1  UNL1       -0.0179
      2 C           4.7116    2.7608    5.2941 C.ar    1  UNL1       -0.0540
      3 H           3.7037    2.7608    4.8925 H       1  UNL1        0.0624
      4 C           4.8519    2.7609    6.6757 C.ar    1  UNL1       -0.0612
      5 H           3.9694    2.7606    7.3013 H       1  UNL1        0.0618
      6 C           6.1077    2.7610    7.2535 C.ar    1  UNL1       -0.0617
      7 H           6.2186    2.7609    8.3284 H       1  UNL1        0.0618
      8 C           7.2222    2.7612    6.4331 C.ar    1  UNL1       -0.0612
      9 H           8.2135    2.7613    6.8675 H       1  UNL1        0.0618
     10 C           7.0702    2.7610    5.0561 C.ar    1  UNL1       -0.0540
     11 H           7.9714    2.7615    4.4498 H       1  UNL1        0.0624
@<TRIPOS>BOND
     1     1    10   ar
     2     1     2   ar
     3    11    10    1
     4     3     2    1
     5    10     8   ar
     6     2     4   ar
     7     8     9    1
     8     8     6   ar
     9     4     6   ar
    10     4     5    1
    11     6     7    1
