@<TRIPOS>MOLECULE
2
 16 15 0 0 0
SMALL
GASTEIGER

@<TRIPOS>ATOM
      1 SI          9.0513    5.3233    7.7768 Si      1  UNL1        0.0000
      2 C           9.7065    6.8765    6.9527 C.3     1  UNL1        0.0000
      3 H           9.4448    6.8085    5.8835 H       1  UNL1        0.0000
      4 H          10.8016    6.8629    6.9908 H       1  UNL1        0.0000
      5 C           7.2083    5.6302    8.2176 C.3     1  UNL1        0.0000
      6 H           6.5523    5.2840    7.4255 H       1  UNL1        0.0000
      7 H           7.0311    6.6994    8.3576 H       1  UNL1        0.0000
      8 H           6.9097    5.1075    9.1220 H       1  UNL1        0.0000
      9 C           9.1350    3.7310    6.6981 C.3     1  UNL1        0.0000
     10 H           8.7149    3.8977    5.7108 H       1  UNL1        0.0000
     11 H           8.5913    2.9053    7.1474 H       1  UNL1        0.0000
     12 H          10.1627    3.4082    6.5603 H       1  UNL1        0.0000
     13 C          10.0192    4.8325    9.3638 C.3     1  UNL1        0.0000
     14 H          10.1052    5.6426   10.0800 H       1  UNL1        0.0000
     15 H          11.0253    4.5132    9.1116 H       1  UNL1        0.0000
     16 H           9.5358    4.0006    9.8670 H       1  UNL1        0.0000
@<TRIPOS>BOND
     1    10     9    1
     2     3     2    1
     3    12     9    1
     4     9    11    1
     5     9     1    1
     6     2     4    1
     7     2     1    1
     8     6     5    1
     9     1     5    1
    10     1    13    1
    11     5     7    1
    12     5     8    1
    13    15    13    1
    14    13    16    1
    15    13    14    1
