@<TRIPOS>MOLECULE
2
 16 15 0 0 0
SMALL
GASTEIGER

@<TRIPOS>ATOM
      1 SI         12.2149    9.4294    7.9988 Si      1  UNL1        0.0000
      2 C          10.5152   10.1416    8.3444 C.3     1  UNL1        0.0000
      3 H          10.4214   11.1172    7.8455 H       1  UNL1        0.0000
      4 H          10.4245   10.3337    9.4232 H       1  UNL1        0.0000
      5 C          12.3145    9.0031    6.1253 C.3     1  UNL1        0.0000
      6 H          11.3186    8.8978    5.6910 H       1  UNL1        0.0000
      7 H          12.8575    8.0791    5.9509 H       1  UNL1        0.0000
      8 H          12.8360    9.7827    5.5788 H       1  UNL1        0.0000
      9 C          12.4377    7.8607    9.0866 C.3     1  UNL1        0.0000
     10 H          12.7192    8.1367   10.0982 H       1  UNL1        0.0000
     11 H          13.2235    7.2175    8.7036 H       1  UNL1        0.0000
     12 H          11.5241    7.2741    9.1431 H       1  UNL1        0.0000
     13 C          13.7560   10.5123    8.3872 C.3     1  UNL1        0.0000
     14 H          13.7510   10.8404    9.4223 H       1  UNL1        0.0000
     15 H          13.7940   11.3998    7.7642 H       1  UNL1        0.0000
     16 H          14.6785    9.9624    8.2260 H       1  UNL1        0.0000
@<TRIPOS>BOND
     1     8     5    1
     2     6     5    1
     3     7     5    1
     4     5     1    1
     5    15    13    1
     6     3     2    1
     7     1     2    1
     8     1    13    1
     9     1     9    1
    10    16    13    1
    11     2     4    1
    12    13    14    1
    13    11     9    1
    14     9    12    1
    15     9    10    1
