@<TRIPOS>MOLECULE
1
 8 7 0 0 0
SMALL
GASTEIGER

@<TRIPOS>ATOM
      1 C           2.5072   13.0354    5.4992 C.3     1  UNL1       -0.0316
      2 C           3.3091   13.1168    6.7301 C.2     1  UNL1       -0.0908
      3 C           4.6383   13.2335    6.7867 C.2     1  UNL1       -0.1026
      4 H           1.7028   12.2995    5.6431 H       1  UNL1        0.0310
      5 H           3.1474   12.6793    4.6796 H       1  UNL1        0.0310
      6 H           2.7584   13.0509    7.6659 H       1  UNL1        0.0566
      7 H           5.2402   13.2704    5.8916 H       1  UNL1        0.0532
      8 H           5.1683   13.2827    7.7231 H       1  UNL1        0.0532
@<TRIPOS>BOND
     1     5     1    1
     2     1     4    1
     3     1     2    1
     4     7     3    1
     5     2     3    2
     6     2     6    1
     7     3     8    1
