@<TRIPOS>MOLECULE
1
 14 14 0 0 0
SMALL
GASTEIGER

@<TRIPOS>ATOM
      1 C           6.5522    4.7636    3.2363 C.3     1  UNL1       -0.0237
      2 C           7.2765    5.1643    2.0222 C.ar    1  UNL1       -0.0470
      3 C           6.7956    6.2128    1.2191 C.ar    1  UNL1       -0.0586
      4 C           7.4206    6.5485    0.0318 C.ar    1  UNL1       -0.0615
      5 C           8.5468    5.8582   -0.3874 C.ar    1  UNL1       -0.0617
      6 C           9.0432    4.8271    0.3962 C.ar    1  UNL1       -0.0615
      7 C           8.4170    4.4824    1.5769 C.ar    1  UNL1       -0.0586
      8 H           6.3651    5.6118    3.8984 H       1  UNL1        0.0316
      9 H           7.0954    3.9930    3.7906 H       1  UNL1        0.0316
     10 H           5.9428    6.7930    1.5555 H       1  UNL1        0.0620
     11 H           7.0326    7.3593   -0.5710 H       1  UNL1        0.0618
     12 H           9.0380    6.1262   -1.3117 H       1  UNL1        0.0618
     13 H           9.9275    4.2902    0.0805 H       1  UNL1        0.0618
     14 H           8.8107    3.6733    2.1783 H       1  UNL1        0.0620
@<TRIPOS>BOND
     1    12     5    1
     2    11     4    1
     3     5     4   ar
     4     5     6   ar
     5     4     3   ar
     6    13     6    1
     7     6     7   ar
     8     3    10    1
     9     3     2   ar
    10     7     2   ar
    11     7    14    1
    12     2     1    1
    13     1     9    1
    14     1     8    1
