@<TRIPOS>MOLECULE
1
 14 14 0 0 0
SMALL
GASTEIGER

@<TRIPOS>ATOM
      1 C           3.7550    5.6048    3.3497 C.3     1  UNL1       -0.0237
      2 C           2.3169    5.5736    3.0346 C.ar    1  UNL1       -0.0470
      3 C           1.4240    4.7863    3.7687 C.ar    1  UNL1       -0.0586
      4 C           0.0856    4.7217    3.4391 C.ar    1  UNL1       -0.0615
      5 C          -0.4086    5.4494    2.3681 C.ar    1  UNL1       -0.0617
      6 C           0.4524    6.2567    1.6437 C.ar    1  UNL1       -0.0615
      7 C           1.7912    6.3221    1.9766 C.ar    1  UNL1       -0.0586
      8 H           3.9083    5.4766    4.4245 H       1  UNL1        0.0316
      9 H           4.1780    6.5715    3.0464 H       1  UNL1        0.0316
     10 H           1.7998    4.2138    4.6044 H       1  UNL1        0.0620
     11 H          -0.5817    4.0991    4.0194 H       1  UNL1        0.0618
     12 H          -1.4558    5.3958    2.1064 H       1  UNL1        0.0618
     13 H           0.0748    6.8406    0.8147 H       1  UNL1        0.0618
     14 H           2.4507    6.9644    1.4062 H       1  UNL1        0.0620
@<TRIPOS>BOND
     1    13     6    1
     2    14     7    1
     3     6     7   ar
     4     6     5   ar
     5     7     2   ar
     6    12     5    1
     7     5     4   ar
     8     2     1    1
     9     2     3   ar
    10     9     1    1
    11     1     8    1
    12     4     3   ar
    13     4    11    1
    14     3    10    1
