@<TRIPOS>MOLECULE
32
 51 53 0 0 0
SMALL
GASTEIGER

@<TRIPOS>ATOM
      1 N          28.3899    1.7343   14.4873 N.pl3   1  UNL1       -0.2358
      2 C          28.6203    1.5238   15.7959 C.ar    1  UNL1        0.0640
      3 C          29.6932    0.7017   16.2135 C.ar    1  UNL1        0.0058
      4 C          30.4773   -0.1272   15.2677 C.ar    1  UNL1       -0.0102
      5 C          32.0284   -1.7456   13.5922 C.ar    1  UNL1       -0.0499
      6 C          31.6022    1.9295   14.3399 C.3     1  UNL1       -0.0391
      7 H          32.6386    2.1504   14.0988 H       1  UNL1        0.0278
      8 H          31.3484    2.3980   15.2882 H       1  UNL1        0.0278
      9 H          30.9731    2.3772   13.5649 H       1  UNL1        0.0278
     10 C          31.3858    0.4511   14.3804 C.ar    1  UNL1       -0.0422
     11 C          30.0151    0.6190   17.5584 C.ar    1  UNL1       -0.0522
     12 H          30.8608    0.0118   17.8514 H       1  UNL1        0.0624
     13 C          30.3556   -1.5186   15.3241 C.ar    1  UNL1       -0.0422
     14 C          27.8023    2.1142   16.7846 C.ar    1  UNL1        0.0058
     15 C          26.5227    2.8103   16.5070 C.ar    1  UNL1       -0.0102
     16 C          32.1358   -0.3653   13.5482 C.ar    1  UNL1       -0.0553
     17 H          32.8221    0.0924   12.8517 H       1  UNL1        0.0623
     18 C          31.1319   -2.3070   14.4866 C.ar    1  UNL1       -0.0553
     19 H          31.0341   -3.3839   14.5408 H       1  UNL1        0.0623
     20 C          24.1465    2.9277   16.8840 C.ar    1  UNL1       -0.0553
     21 H          23.2403    2.4831   17.2765 H       1  UNL1        0.0623
     22 C          29.4331   -2.1990   16.2977 C.3     1  UNL1       -0.0391
     23 H          28.6399   -1.5344   16.6278 H       1  UNL1        0.0278
     24 H          29.9911   -2.5211   17.1791 H       1  UNL1        0.0278
     25 H          28.9873   -3.0821   15.8433 H       1  UNL1        0.0278
     26 C          25.3424    2.2373   16.9964 C.ar    1  UNL1       -0.0422
     27 C          26.4740    4.0603   15.8918 C.ar    1  UNL1       -0.0422
     28 C          28.1674    2.0135   18.1202 C.ar    1  UNL1       -0.0522
     29 H          27.5584    2.5159   18.8601 H       1  UNL1        0.0624
     30 C          25.2576    4.7238   15.7926 C.ar    1  UNL1       -0.0553
     31 H          25.2348    5.6994   15.3269 H       1  UNL1        0.0623
     32 C          28.4822    2.1820   13.3792 C.3     1  UNL1        0.1355
     33 C          29.2868    1.3040   18.5160 C.ar    1  UNL1       -0.0605
     34 H          29.5676    1.2573   19.5590 H       1  UNL1        0.0618
     35 C          25.3416    0.8877   17.6598 C.3     1  UNL1       -0.0391
     36 H          26.1185    0.2486   17.2464 H       1  UNL1        0.0278
     37 H          24.3754    0.4012   17.5314 H       1  UNL1        0.0278
     38 H          25.5261    0.9846   18.7306 H       1  UNL1        0.0278
     39 C          27.7049    4.7219   15.3648 C.3     1  UNL1       -0.0391
     40 H          28.5963    4.3840   15.8874 H       1  UNL1        0.0278
     41 H          27.6232    5.8020   15.4601 H       1  UNL1        0.0278
     42 H          27.8346    4.4833   14.3051 H       1  UNL1        0.0278
     43 C          24.0870    4.1810   16.2914 C.ar    1  UNL1       -0.0499
     44 C          32.9099   -2.6023   12.7325 C.3     1  UNL1       -0.0397
     45 H          32.4781   -3.5904   12.5901 H       1  UNL1        0.0278
     46 H          33.8867   -2.7243   13.2055 H       1  UNL1        0.0278
     47 H          33.0629   -2.1332   11.7633 H       1  UNL1        0.0278
     48 C          22.7811    4.9130   16.1866 C.3     1  UNL1       -0.0397
     49 H          22.1607    4.4663   15.4088 H       1  UNL1        0.0278
     50 H          22.9423    5.9585   15.9335 H       1  UNL1        0.0278
     51 H          22.2311    4.8588   17.1254 H       1  UNL1        0.0278
@<TRIPOS>BOND
     1    47    44    1
     2    45    44    1
     3    44    46    1
     4    44     5    1
     5    17    16    1
     6    32     1    1
     7    16     5   ar
     8    16    10   ar
     9     9     6    1
    10     5    18   ar
    11     7     6    1
    12    42    39    1
    13     6    10    1
    14     6     8    1
    15    10     4   ar
    16    18    19    1
    17    18    13   ar
    18     1     2    1
    19     4    13   ar
    20     4     3    1
    21    13    22    1
    22    31    30    1
    23    39    41    1
    24    39    40    1
    25    39    27    1
    26    49    48    1
    27    30    27   ar
    28    30    43   ar
    29     2     3   ar
    30     2    14   ar
    31    25    22    1
    32    27    15   ar
    33    50    48    1
    34    48    43    1
    35    48    51    1
    36     3    11   ar
    37    43    20   ar
    38    22    23    1
    39    22    24    1
    40    15    14    1
    41    15    26   ar
    42    14    28   ar
    43    20    26   ar
    44    20    21    1
    45    26    35    1
    46    36    35    1
    47    37    35    1
    48    11    12    1
    49    11    33   ar
    50    35    38    1
    51    28    33   ar
    52    28    29    1
    53    33    34    1
