@<TRIPOS>MOLECULE
6
 74 77 0 0 0
SMALL
GASTEIGER

@<TRIPOS>ATOM
      1 SI         -4.9686   11.4176   17.4304 Si      1  UNL1        0.0000
      2 O          -4.1024   11.8150   16.0646 O.3     1  UNL1        0.0000
      3 O          -2.1481   11.3109   17.0168 O.2     1  UNL1        0.0000
      4 N          -2.2288   11.6832   14.7748 N.am    1  UNL1        0.0000
      5 C          -2.7627   11.5850   16.0143 C.2     1  UNL1        0.0000
      6 C          -0.8711   11.4632   14.6501 C.3     1  UNL1        0.0000
      7 C          -3.0357   11.9417   13.6137 C.ar    1  UNL1        0.0000
      8 C          -2.8075   14.4973   13.8488 C.ar    1  UNL1        0.0000
      9 C          -3.6672   15.2218   14.6747 C.ar    1  UNL1        0.0000
     10 C          -3.2635   16.4582   15.1575 C.ar    1  UNL1        0.0000
     11 H          -3.9311   17.0159   15.8009 H       1  UNL1        0.0000
     12 C          -4.5358   12.1888   19.1148 C.ar    1  UNL1        0.0000
     13 C          -1.5858   15.0490   13.4567 C.ar    1  UNL1        0.0000
     14 C          -3.2834   13.2530   13.1908 C.ar    1  UNL1        0.0000
     15 C          -2.0342   17.0013   14.8159 C.ar    1  UNL1        0.0000
     16 C          -1.2146   16.2904   13.9519 C.ar    1  UNL1        0.0000
     17 H          -0.2717   16.7199   13.6439 H       1  UNL1        0.0000
     18 C          -4.0439   13.0468   21.7392 C.ar    1  UNL1        0.0000
     19 H          -3.8578   13.3739   22.7537 H       1  UNL1        0.0000
     20 C          -5.4874   12.9145   19.8293 C.ar    1  UNL1        0.0000
     21 H          -6.4374   13.1444   19.3703 H       1  UNL1        0.0000
     22 C          -3.3254   11.9138   19.7487 C.ar    1  UNL1        0.0000
     23 H          -2.5564   11.3895   19.2061 H       1  UNL1        0.0000
     24 C          -3.0851   12.3284   21.0461 C.ar    1  UNL1        0.0000
     25 H          -2.1438   12.0856   21.5188 H       1  UNL1        0.0000
     26 C          -3.5722   10.8781   12.8736 C.ar    1  UNL1        0.0000
     27 C          -3.4676    9.4421   13.2367 C.ar    1  UNL1        0.0000
     28 C          -5.2447   13.3488   21.1200 C.ar    1  UNL1        0.0000
     29 H          -5.9987   13.9168   21.6493 H       1  UNL1        0.0000
     30 C          -5.0382   14.7043   14.9899 C.3     1  UNL1        0.0000
     31 H          -5.6876   14.8094   14.1189 H       1  UNL1        0.0000
     32 H          -5.4786   15.2589   15.8162 H       1  UNL1        0.0000
     33 H          -5.0015   13.6507   15.2484 H       1  UNL1        0.0000
     34 C          -4.9363    9.5316   17.7053 C.3     1  UNL1        0.0000
     35 H          -4.9296    8.9845   16.7678 H       1  UNL1        0.0000
     36 H          -5.7916    9.1995   18.2868 H       1  UNL1        0.0000
     37 H          -4.0399    9.2490   18.2482 H       1  UNL1        0.0000
     38 C          -6.7152   12.0037   16.9393 C.3     1  UNL1        0.0000
     39 H          -6.8008   13.0852   16.9456 H       1  UNL1        0.0000
     40 H          -7.4360   11.6103   17.6476 H       1  UNL1        0.0000
     41 H          -7.0064   11.6609   15.9528 H       1  UNL1        0.0000
     42 C          -4.4955    7.4622   14.1318 C.ar    1  UNL1        0.0000
     43 H          -5.3357    6.9850   14.6196 H       1  UNL1        0.0000
     44 C          -2.3844    8.6792   12.7988 C.ar    1  UNL1        0.0000
     45 C          -4.0248   13.4751   12.0328 C.ar    1  UNL1        0.0000
     46 H          -4.1972   14.4974   11.7234 H       1  UNL1        0.0000
     47 C          -0.7112   14.3165   12.4941 C.3     1  UNL1        0.0000
     48 H          -0.2096   13.4868   13.0041 H       1  UNL1        0.0000
     49 H           0.0443   14.9745   12.0706 H       1  UNL1        0.0000
     50 H          -1.2988   13.8859   11.6860 H       1  UNL1        0.0000
     51 C          -3.3885    6.7041   13.7777 C.ar    1  UNL1        0.0000
     52 C          -4.2936   11.1383   11.7132 C.ar    1  UNL1        0.0000
     53 H          -4.6802   10.2997   11.1501 H       1  UNL1        0.0000
     54 C          -1.3225    9.2915   11.9505 C.3     1  UNL1        0.0000
     55 H          -1.7636    9.8435   11.1216 H       1  UNL1        0.0000
     56 H          -0.6493    8.5331   11.5612 H       1  UNL1        0.0000
     57 H          -0.7222   10.0025   12.5289 H       1  UNL1        0.0000
     58 C          -1.5907   18.3176   15.3816 C.3     1  UNL1        0.0000
     59 H          -0.9581   18.8516   14.6750 H       1  UNL1        0.0000
     60 H          -1.0127   18.1483   16.2918 H       1  UNL1        0.0000
     61 H          -2.4451   18.9427   15.6346 H       1  UNL1        0.0000
     62 C          -4.5185   12.4291   11.2823 C.ar    1  UNL1        0.0000
     63 H          -5.0783   12.6180   10.3770 H       1  UNL1        0.0000
     64 C          -2.3497    7.3273   13.1059 C.ar    1  UNL1        0.0000
     65 H          -1.4900    6.7504   12.8051 H       1  UNL1        0.0000
     66 C          -4.5509    8.8217   13.8620 C.ar    1  UNL1        0.0000
     67 C          -5.7942    9.6059   14.1639 C.3     1  UNL1        0.0000
     68 H          -6.4524    9.0565   14.8337 H       1  UNL1        0.0000
     69 H          -6.3384    9.8068   13.2391 H       1  UNL1        0.0000
     70 H          -5.5443   10.5627   14.6126 H       1  UNL1        0.0000
     71 C          -3.3405    5.2298   14.0565 C.3     1  UNL1        0.0000
     72 H          -3.9142    4.9834   14.9478 H       1  UNL1        0.0000
     73 H          -2.3135    4.8961   14.1949 H       1  UNL1        0.0000
     74 H          -3.7646    4.6756   13.2170 H       1  UNL1        0.0000
@<TRIPOS>BOND
     1    63    62    1
     2    55    54    1
     3    53    52    1
     4    62    52   ar
     5    62    45   ar
     6    56    54    1
     7    50    47    1
     8    52    26   ar
     9    46    45    1
    10    54    57    1
    11    54    44    1
    12    45    14   ar
    13    49    47    1
    14    47    48    1
    15    47    13    1
    16    44    64   ar
    17    44    27   ar
    18    65    64    1
    19    26    27    1
    20    26     7   ar
    21    64    51   ar
    22    14     7   ar
    23    14     8    1
    24    74    71    1
    25    27    66   ar
    26    69    67    1
    27    13     8   ar
    28    13    16   ar
    29     7     4    1
    30    17    16    1
    31    51    71    1
    32    51    42   ar
    33     8     9   ar
    34    66    42   ar
    35    66    67    1
    36    16    15   ar
    37    71    73    1
    38    71    72    1
    39    31    30    1
    40    42    43    1
    41    67    70    1
    42    67    68    1
    43     6     4    1
    44     9    30    1
    45     9    10   ar
    46    59    58    1
    47     4     5   am
    48    15    10   ar
    49    15    58    1
    50    30    33    1
    51    30    32    1
    52    10    11    1
    53    58    61    1
    54    58    60    1
    55    41    38    1
    56     5     2    1
    57     5     3    2
    58     2     1    1
    59    35    34    1
    60    38    39    1
    61    38     1    1
    62    38    40    1
    63     1    34    1
    64     1    12    1
    65    34    37    1
    66    34    36    1
    67    12    22   ar
    68    12    20   ar
    69    23    22    1
    70    21    20    1
    71    22    24   ar
    72    20    28   ar
    73    24    25    1
    74    24    18   ar
    75    28    29    1
    76    28    18   ar
    77    18    19    1
