@<TRIPOS>MOLECULE
7
 51 53 0 0 0
SMALL
GASTEIGER

@<TRIPOS>ATOM
      1 N          30.3395    5.3859   12.1083 N.pl3   1  UNL1       -0.2358
      2 C          31.2298    6.3864   12.0474 C.ar    1  UNL1        0.0640
      3 C          29.2080    7.3739    9.7187 C.ar    1  UNL1       -0.0422
      4 C          31.1224    6.6752    8.4236 C.ar    1  UNL1       -0.0422
      5 C          30.5567    7.0042    9.6585 C.ar    1  UNL1       -0.0102
      6 C          31.4102    7.1360   10.8609 C.ar    1  UNL1        0.0058
      7 C          29.6229    4.4277   11.9869 C.3     1  UNL1        0.1355
      8 C          28.5531    7.7214   11.0204 C.3     1  UNL1       -0.0391
      9 H          28.2524    6.8057   11.5310 H       1  UNL1        0.0278
     10 H          27.6598    8.3164   10.8512 H       1  UNL1        0.0278
     11 H          29.2334    8.2712   11.6693 H       1  UNL1        0.0278
     12 C          32.0168    6.7089   13.1771 C.ar    1  UNL1        0.0058
     13 C          32.3879    8.1199   10.8196 C.ar    1  UNL1       -0.0522
     14 H          32.5060    8.6895    9.9076 H       1  UNL1        0.0624
     15 C          33.1831    8.4027   11.9153 C.ar    1  UNL1       -0.0605
     16 H          33.9356    9.1766   11.8619 H       1  UNL1        0.0618
     17 C          32.7297    5.1414   14.9896 C.ar    1  UNL1       -0.0422
     18 C          32.9777    7.7011   13.0914 C.ar    1  UNL1       -0.0522
     19 H          33.5599    7.9378   13.9728 H       1  UNL1        0.0624
     20 C          29.8040    7.5402   14.7990 C.3     1  UNL1       -0.0391
     21 H          30.3521    8.3902   14.3920 H       1  UNL1        0.0278
     22 H          29.1545    7.8912   15.5983 H       1  UNL1        0.0278
     23 H          29.1861    7.1301   14.0015 H       1  UNL1        0.0278
     24 C          31.8120    6.0698   14.4986 C.ar    1  UNL1       -0.0102
     25 C          31.4898    5.0075   17.0619 C.ar    1  UNL1       -0.0499
     26 C          30.7536    6.4946   15.3027 C.ar    1  UNL1       -0.0422
     27 C          28.4672    7.4467    8.5502 C.ar    1  UNL1       -0.0553
     28 H          27.4290    7.7416    8.6068 H       1  UNL1        0.0623
     29 C          30.3503    6.7523    7.2730 C.ar    1  UNL1       -0.0553
     30 H          30.8016    6.4976    6.3223 H       1  UNL1        0.0623
     31 C          29.0258    7.1569    7.3148 C.ar    1  UNL1       -0.0499
     32 C          32.5546    6.2402    8.2884 C.3     1  UNL1       -0.0391
     33 H          33.1401    7.0107    7.7841 H       1  UNL1        0.0278
     34 H          32.6106    5.3330    7.6866 H       1  UNL1        0.0278
     35 H          33.0050    6.0484    9.2579 H       1  UNL1        0.0278
     36 C          30.6078    5.9595   16.5730 C.ar    1  UNL1       -0.0553
     37 H          29.7919    6.2948   17.1993 H       1  UNL1        0.0623
     38 C          32.5512    4.6160   16.2599 C.ar    1  UNL1       -0.0553
     39 H          33.2569    3.8868   16.6356 H       1  UNL1        0.0623
     40 C          33.9041    4.7261   14.1541 C.3     1  UNL1       -0.0391
     41 H          33.5668    4.4005   13.1724 H       1  UNL1        0.0278
     42 H          34.4502    3.9148   14.6312 H       1  UNL1        0.0278
     43 H          34.5871    5.5633   14.0078 H       1  UNL1        0.0278
     44 C          31.2887    4.4010   18.4181 C.3     1  UNL1       -0.0397
     45 H          30.7955    5.1016   19.0893 H       1  UNL1        0.0278
     46 H          32.2386    4.0992   18.8555 H       1  UNL1        0.0278
     47 H          30.6583    3.5138   18.3348 H       1  UNL1        0.0278
     48 C          28.2051    7.2442    6.0616 C.3     1  UNL1       -0.0397
     49 H          27.7641    6.2721    5.8361 H       1  UNL1        0.0278
     50 H          28.8191    7.5404    5.2127 H       1  UNL1        0.0278
     51 H          27.3960    7.9616    6.1811 H       1  UNL1        0.0278
@<TRIPOS>BOND
     1    50    48    1
     2    49    48    1
     3    48    51    1
     4    48    31    1
     5    30    29    1
     6    29    31   ar
     7    29     4   ar
     8    31    27   ar
     9    34    32    1
    10    33    32    1
    11    32     4    1
    12    32    35    1
    13     4     5   ar
    14    27    28    1
    15    27     3   ar
    16     5     3   ar
    17     5     6    1
    18     3     8    1
    19    14    13    1
    20    13     6   ar
    21    13    15   ar
    22    10     8    1
    23     6     2   ar
    24     8     9    1
    25     8    11    1
    26    16    15    1
    27    15    18   ar
    28     7     1    1
    29     2     1    1
    30     2    12   ar
    31    18    12   ar
    32    18    19    1
    33    41    40    1
    34    12    24    1
    35    23    20    1
    36    43    40    1
    37    40    42    1
    38    40    17    1
    39    21    20    1
    40    24    17   ar
    41    24    26   ar
    42    20    26    1
    43    20    22    1
    44    17    38   ar
    45    26    36   ar
    46    38    39    1
    47    38    25   ar
    48    36    25   ar
    49    36    37    1
    50    25    44    1
    51    47    44    1
    52    44    46    1
    53    44    45    1
