@<TRIPOS>MOLECULE
5
 51 53 0 0 0
SMALL
GASTEIGER

@<TRIPOS>ATOM
      1 N           2.3209   11.8411   17.0873 N.pl3   1  UNL1       -0.2358
      2 C           4.9778   10.7665   17.7291 C.ar    1  UNL1       -0.0102
      3 C           3.1345   12.5256   17.9116 C.ar    1  UNL1        0.0640
      4 C           1.2559   14.1005   18.5173 C.ar    1  UNL1       -0.0102
      5 C           1.7117   11.5196   16.1075 C.3     1  UNL1        0.1355
      6 C           2.6828   13.7043   18.5506 C.ar    1  UNL1        0.0058
      7 C           0.6555   14.5499   17.3413 C.ar    1  UNL1       -0.0422
      8 C          -0.6949   14.8623   17.3440 C.ar    1  UNL1       -0.0553
      9 H          -1.1587   15.1747   16.4212 H       1  UNL1        0.0623
     10 C           4.4522   12.0847   18.1591 C.ar    1  UNL1        0.0058
     11 C          -0.8315   14.4083   19.6740 C.ar    1  UNL1       -0.0553
     12 H          -1.4017   14.3791   20.5924 H       1  UNL1        0.0623
     13 C           5.2980    9.8295   18.7173 C.ar    1  UNL1       -0.0422
     14 C          -1.4558   14.7930   18.4991 C.ar    1  UNL1       -0.0499
     15 C           6.2112    8.3472   17.0383 C.ar    1  UNL1       -0.0499
     16 C           5.8634    9.2732   16.0687 C.ar    1  UNL1       -0.0553
     17 H           6.0784    9.0594   15.0303 H       1  UNL1        0.0623
     18 C           0.5076   14.0464   19.6973 C.ar    1  UNL1       -0.0422
     19 C           5.2550   10.4782   16.3923 C.ar    1  UNL1       -0.0422
     20 C           5.3140   12.8917   18.8890 C.ar    1  UNL1       -0.0522
     21 H           6.3338   12.5599   19.0332 H       1  UNL1        0.0624
     22 C           5.9135    8.6387   18.3605 C.ar    1  UNL1       -0.0553
     23 H           6.1655    7.9235   19.1336 H       1  UNL1        0.0623
     24 C           3.5758   14.4787   19.2720 C.ar    1  UNL1       -0.0522
     25 H           3.2212   15.3965   19.7210 H       1  UNL1        0.0624
     26 C          -2.9093   15.1565   18.4650 C.3     1  UNL1       -0.0397
     27 H          -3.0354   16.1796   18.1109 H       1  UNL1        0.0278
     28 H          -3.3614   15.0643   19.4500 H       1  UNL1        0.0278
     29 H          -3.4392   14.4976   17.7785 H       1  UNL1        0.0278
     30 C           4.9296   11.4450   15.3022 C.3     1  UNL1       -0.0391
     31 H           3.9342   11.2363   14.8999 H       1  UNL1        0.0278
     32 H           5.6459   11.3553   14.4900 H       1  UNL1        0.0278
     33 H           4.9288   12.4700   15.6639 H       1  UNL1        0.0278
     34 C           1.4405   14.7558   16.0852 C.3     1  UNL1       -0.0391
     35 H           1.1359   15.6883   15.6155 H       1  UNL1        0.0278
     36 H           1.2410   13.9413   15.3828 H       1  UNL1        0.0278
     37 H           2.5106   14.7835   16.2772 H       1  UNL1        0.0278
     38 C           4.9009   14.1029   19.4147 C.ar    1  UNL1       -0.0605
     39 H           5.5943   14.7303   19.9577 H       1  UNL1        0.0618
     40 C           4.9889   10.0825   20.1671 C.3     1  UNL1       -0.0391
     41 H           5.8216   10.5902   20.6561 H       1  UNL1        0.0278
     42 H           4.8179    9.1412   20.6876 H       1  UNL1        0.0278
     43 H           4.1078   10.7114   20.2753 H       1  UNL1        0.0278
     44 C           1.1229   13.6340   21.0064 C.3     1  UNL1       -0.0391
     45 H           1.9499   12.9447   20.8573 H       1  UNL1        0.0278
     46 H           0.3781   13.1597   21.6424 H       1  UNL1        0.0278
     47 H           1.5069   14.5082   21.5352 H       1  UNL1        0.0278
     48 C           6.8532    7.0457   16.6582 C.3     1  UNL1       -0.0397
     49 H           7.5471    7.1830   15.8308 H       1  UNL1        0.0278
     50 H           6.0885    6.3358   16.3404 H       1  UNL1        0.0278
     51 H           7.3896    6.6133   17.5007 H       1  UNL1        0.0278
@<TRIPOS>BOND
     1    32    30    1
     2    31    30    1
     3    17    16    1
     4    30    33    1
     5    30    19    1
     6    36    34    1
     7    35    34    1
     8    49    48    1
     9    16    19   ar
    10    16    15   ar
    11    34    37    1
    12    34     7    1
    13     5     1    1
    14    50    48    1
    15    19     2   ar
    16     9     8    1
    17    48    15    1
    18    48    51    1
    19    15    22   ar
    20     1     3    1
    21     7     8   ar
    22     7     4   ar
    23     8    14   ar
    24     2    10    1
    25     2    13   ar
    26    29    26    1
    27     3    10   ar
    28     3     6   ar
    29    27    26    1
    30    10    20   ar
    31    22    13   ar
    32    22    23    1
    33    26    14    1
    34    26    28    1
    35    14    11   ar
    36     4     6    1
    37     4    18   ar
    38     6    24   ar
    39    13    40    1
    40    20    21    1
    41    20    38   ar
    42    24    38   ar
    43    24    25    1
    44    38    39    1
    45    11    18   ar
    46    11    12    1
    47    18    44    1
    48    40    43    1
    49    40    41    1
    50    40    42    1
    51    45    44    1
    52    44    47    1
    53    44    46    1
