@<TRIPOS>MOLECULE
30
 51 53 0 0 0
SMALL
GASTEIGER

@<TRIPOS>ATOM
      1 N          25.8571    3.7461   10.9403 N.pl3   1  UNL1       -0.2358
      2 C          24.5793    3.5649   10.5599 C.ar    1  UNL1        0.0640
      3 C          25.9613   -0.4331   13.3734 C.ar    1  UNL1       -0.0499
      4 C          25.5904    0.4241   11.1466 C.ar    1  UNL1       -0.0422
      5 C          24.6409    1.3142   11.6465 C.ar    1  UNL1       -0.0102
      6 C          24.4331    6.6620    8.6318 C.ar    1  UNL1       -0.0422
      7 C          22.6969    2.0748   10.2864 C.ar    1  UNL1       -0.0522
      8 H          22.2451    1.1037   10.4424 H       1  UNL1        0.0624
      9 C          26.2457   -0.4301   12.0165 C.ar    1  UNL1       -0.0553
     10 H          27.0234   -1.0749   11.6370 H       1  UNL1        0.0623
     11 C          24.3290    1.3076   13.0063 C.ar    1  UNL1       -0.0422
     12 C          23.9648    2.3102   10.7808 C.ar    1  UNL1        0.0058
     13 C          23.8412    4.6018    9.9497 C.ar    1  UNL1        0.0058
     14 C          24.9822    8.0343   10.9734 C.ar    1  UNL1       -0.0553
     15 H          25.1780    8.5688   11.8940 H       1  UNL1        0.0623
     16 C          24.6089    6.7006   11.0383 C.ar    1  UNL1       -0.0422
     17 C          24.8153    7.9965    8.6054 C.ar    1  UNL1       -0.0553
     18 H          24.8857    8.5002    7.6492 H       1  UNL1        0.0623
     19 C          24.9869    0.4271   13.8510 C.ar    1  UNL1       -0.0553
     20 H          24.7469    0.4362   14.9046 H       1  UNL1        0.0623
     21 C          24.3379    5.9939    9.8580 C.ar    1  UNL1       -0.0102
     22 C          24.1534    6.0082    7.3070 C.3     1  UNL1       -0.0391
     23 H          23.4747    6.6286    6.7210 H       1  UNL1        0.0278
     24 H          23.7084    5.0251    7.4206 H       1  UNL1        0.0278
     25 H          25.0808    5.9068    6.7417 H       1  UNL1        0.0278
     26 C          25.9135    0.4073    9.6872 C.3     1  UNL1       -0.0391
     27 H          25.0069    0.3978    9.0836 H       1  UNL1        0.0278
     28 H          26.5204   -0.4581    9.4382 H       1  UNL1        0.0278
     29 H          26.4812    1.3007    9.4316 H       1  UNL1        0.0278
     30 C          26.9515    3.4042   11.3060 C.3     1  UNL1        0.1355
     31 C          23.3163    2.2649   13.5628 C.3     1  UNL1       -0.0391
     32 H          23.7501    3.2632   13.6208 H       1  UNL1        0.0278
     33 H          23.0224    1.9665   14.5663 H       1  UNL1        0.0278
     34 H          22.4302    2.3168   12.9311 H       1  UNL1        0.0278
     35 C          26.7081   -1.3596   14.2829 C.3     1  UNL1       -0.0397
     36 H          27.7773   -1.2495   14.1141 H       1  UNL1        0.0278
     37 H          26.4405   -2.3973   14.0774 H       1  UNL1        0.0278
     38 H          26.4854   -1.1468   15.3264 H       1  UNL1        0.0278
     39 C          25.0935    8.7023    9.7645 C.ar    1  UNL1       -0.0499
     40 C          22.5563    4.3290    9.4940 C.ar    1  UNL1       -0.0522
     41 H          21.9787    5.1310    9.0528 H       1  UNL1        0.0624
     42 C          21.9952    3.0712    9.6213 C.ar    1  UNL1       -0.0605
     43 H          21.0012    2.8783    9.2417 H       1  UNL1        0.0618
     44 C          24.4576    6.0585   12.3837 C.3     1  UNL1       -0.0391
     45 H          25.3251    5.4379   12.6099 H       1  UNL1        0.0278
     46 H          23.5747    5.4215   12.4145 H       1  UNL1        0.0278
     47 H          24.3696    6.8193   13.1573 H       1  UNL1        0.0278
     48 C          25.5105   10.1427    9.6993 C.3     1  UNL1       -0.0397
     49 H          24.8469   10.7070    9.0448 H       1  UNL1        0.0278
     50 H          26.5225   10.2257    9.2997 H       1  UNL1        0.0278
     51 H          25.4964   10.5962   10.6879 H       1  UNL1        0.0278
@<TRIPOS>BOND
     1    23    22    1
     2    25    22    1
     3    22    24    1
     4    22     6    1
     5    18    17    1
     6    17     6   ar
     7    17    39   ar
     8     6    21   ar
     9    49    48    1
    10    41    40    1
    11    27    26    1
    12    43    42    1
    13    50    48    1
    14    29    26    1
    15    28    26    1
    16    40    42   ar
    17    40    13   ar
    18    42     7   ar
    19    26     4    1
    20    48    39    1
    21    48    51    1
    22    39    14   ar
    23    21    13    1
    24    21    16   ar
    25    13     2   ar
    26     7     8    1
    27     7    12   ar
    28     2    12   ar
    29     2     1    1
    30    12     5    1
    31     1    30    1
    32    14    16   ar
    33    14    15    1
    34    16    44    1
    35     4     5   ar
    36     4     9   ar
    37    10     9    1
    38     5    11   ar
    39     9     3   ar
    40    44    46    1
    41    44    45    1
    42    44    47    1
    43    34    31    1
    44    11    31    1
    45    11    19   ar
    46     3    19   ar
    47     3    35    1
    48    31    32    1
    49    31    33    1
    50    19    20    1
    51    37    35    1
    52    36    35    1
    53    35    38    1
