@<TRIPOS>MOLECULE
15
 51 53 0 0 0
SMALL
GASTEIGER

@<TRIPOS>ATOM
      1 N           1.1692    8.1379   14.1599 N.pl3   1  UNL1       -0.2358
      2 C           1.0203    6.8278   14.4291 C.ar    1  UNL1        0.0640
      3 C           1.6900    7.8452   17.4143 C.ar    1  UNL1       -0.0422
      4 C           0.5031    7.4337   16.8051 C.ar    1  UNL1       -0.0102
      5 C           3.2098    6.6218   12.0890 C.ar    1  UNL1       -0.0422
      6 C           0.5834    6.4326   15.7160 C.ar    1  UNL1        0.0058
      7 C           3.8447    6.7569   10.8643 C.ar    1  UNL1       -0.0553
      8 H           4.8630    7.1233   10.8383 H       1  UNL1        0.0623
      9 C          -0.7144    7.9448   17.2488 C.ar    1  UNL1       -0.0422
     10 C           1.6474    8.7945   18.4223 C.ar    1  UNL1       -0.0553
     11 H           2.5762    9.1204   18.8687 H       1  UNL1        0.0623
     12 C          -0.7261    8.8784   18.2718 C.ar    1  UNL1       -0.0553
     13 H          -1.6714    9.2818   18.6016 H       1  UNL1        0.0623
     14 C           1.2828    5.8399   13.4574 C.ar    1  UNL1        0.0058
     15 C           1.0610    9.3186   14.3658 C.3     1  UNL1        0.1355
     16 C           3.9528    6.9834   13.3385 C.3     1  UNL1       -0.0391
     17 H           5.0205    7.0592   13.1416 H       1  UNL1        0.0278
     18 H           3.7889    6.2412   14.1181 H       1  UNL1        0.0278
     19 H           3.6049    7.9456   13.7150 H       1  UNL1        0.0278
     20 C           0.3235    5.1002   15.9742 C.ar    1  UNL1       -0.0522
     21 H          -0.0196    4.8163   16.9602 H       1  UNL1        0.0624
     22 C           3.0112    7.2746   16.9939 C.3     1  UNL1       -0.0391
     23 H           2.9052    6.2508   16.6373 H       1  UNL1        0.0278
     24 H           3.7119    7.2903   17.8253 H       1  UNL1        0.0278
     25 H           3.4364    7.8786   16.1928 H       1  UNL1        0.0278
     26 C           1.9003    6.1248   12.1417 C.ar    1  UNL1       -0.0102
     27 C           0.4462    9.3328   18.8525 C.ar    1  UNL1       -0.0499
     28 C           1.0278    4.5081   13.7672 C.ar    1  UNL1       -0.0522
     29 H           1.2529    3.7512   13.0268 H       1  UNL1        0.0624
     30 C           1.2568    5.7756   10.9499 C.ar    1  UNL1       -0.0422
     31 C           3.2161    6.4186    9.6753 C.ar    1  UNL1       -0.0499
     32 C           1.9201    5.9347    9.7399 C.ar    1  UNL1       -0.0553
     33 H           1.4102    5.6621    8.8242 H       1  UNL1        0.0623
     34 C           0.5246    4.1333   14.9995 C.ar    1  UNL1       -0.0605
     35 H           0.3240    3.0924   15.2122 H       1  UNL1        0.0618
     36 C           3.9028    6.6055    8.3547 C.3     1  UNL1       -0.0397
     37 H           3.6431    7.5798    7.9364 H       1  UNL1        0.0278
     38 H           3.5937    5.8415    7.6435 H       1  UNL1        0.0278
     39 H           4.9842    6.5648    8.4695 H       1  UNL1        0.0278
     40 C          -2.0096    7.5324   16.6206 C.3     1  UNL1       -0.0391
     41 H          -2.3900    8.3533   16.0135 H       1  UNL1        0.0278
     42 H          -2.7530    7.3008   17.3824 H       1  UNL1        0.0278
     43 H          -1.8789    6.6668   15.9793 H       1  UNL1        0.0278
     44 C           0.3992   10.3976   19.9037 C.3     1  UNL1       -0.0397
     45 H           1.3668   10.5107   20.3888 H       1  UNL1        0.0278
     46 H          -0.3505   10.1653   20.6600 H       1  UNL1        0.0278
     47 H           0.1277   11.3442   19.4370 H       1  UNL1        0.0278
     48 C          -0.1516    5.2530   10.9014 C.3     1  UNL1       -0.0391
     49 H          -0.5157    4.9732   11.8848 H       1  UNL1        0.0278
     50 H          -0.2079    4.3811   10.2495 H       1  UNL1        0.0278
     51 H          -0.8140    6.0171   10.4923 H       1  UNL1        0.0278
@<TRIPOS>BOND
     1    38    36    1
     2    37    36    1
     3    36    39    1
     4    36    31    1
     5    33    32    1
     6    31    32   ar
     7    31     7   ar
     8    32    30   ar
     9    50    48    1
    10    51    48    1
    11     8     7    1
    12     7     5   ar
    13    48    30    1
    14    48    49    1
    15    30    26   ar
    16     5    26   ar
    17     5    16    1
    18    26    14    1
    19    29    28    1
    20    17    16    1
    21    16    19    1
    22    16    18    1
    23    14    28   ar
    24    14     2   ar
    25    28    34   ar
    26     1    15    1
    27     1     2    1
    28     2     6   ar
    29    34    35    1
    30    34    20   ar
    31     6    20   ar
    32     6     4    1
    33    20    21    1
    34    43    40    1
    35    41    40    1
    36    25    22    1
    37    40     9    1
    38    40    42    1
    39    23    22    1
    40     4     9   ar
    41     4     3   ar
    42    22     3    1
    43    22    24    1
    44     9    12   ar
    45     3    10   ar
    46    12    13    1
    47    12    27   ar
    48    10    27   ar
    49    10    11    1
    50    27    44    1
    51    47    44    1
    52    44    45    1
    53    44    46    1
