@<TRIPOS>MOLECULE
4
 51 53 0 0 0
SMALL
GASTEIGER

@<TRIPOS>ATOM
      1 N          13.0842   18.3360   19.5695 N.pl3   1  UNL1       -0.2358
      2 C          12.7499   17.0332   19.6055 C.ar    1  UNL1        0.0640
      3 C          10.5527   18.1480   17.3462 C.ar    1  UNL1       -0.0422
      4 C          13.0482   19.5147   19.3170 C.3     1  UNL1        0.1355
      5 C          11.5186   15.1619   18.6789 C.ar    1  UNL1       -0.0522
      6 H          10.8838   14.7677   17.8958 H       1  UNL1        0.0624
      7 C          13.1923   16.1862   20.6458 C.ar    1  UNL1        0.0058
      8 C          12.7326   14.8793   20.7079 C.ar    1  UNL1       -0.0522
      9 H          13.0575   14.2584   21.5330 H       1  UNL1        0.0624
     10 C          14.1725   16.5847   21.6852 C.ar    1  UNL1       -0.0102
     11 C          10.1624   18.7162   16.1416 C.ar    1  UNL1       -0.0553
     12 H           9.3626   19.4404   16.1409 H       1  UNL1        0.0623
     13 C          11.9536   16.4723   18.5808 C.ar    1  UNL1        0.0058
     14 C          11.8725   14.3656   19.7544 C.ar    1  UNL1       -0.0605
     15 H          11.5051   13.3523   19.8340 H       1  UNL1        0.0618
     16 C          10.7690   18.3662   14.9471 C.ar    1  UNL1       -0.0499
     17 C          11.8242   17.4649   14.9756 C.ar    1  UNL1       -0.0553
     18 H          12.3241   17.2025   14.0521 H       1  UNL1        0.0623
     19 C          13.3978   15.9289   16.1686 C.3     1  UNL1       -0.0391
     20 H          13.8920   15.9170   15.1994 H       1  UNL1        0.0278
     21 H          13.0598   14.9182   16.3980 H       1  UNL1        0.0278
     22 H          14.1241   16.2142   16.9275 H       1  UNL1        0.0278
     23 C          12.3902   17.8783   22.8679 C.3     1  UNL1       -0.0391
     24 H          11.6598   17.0740   22.7752 H       1  UNL1        0.0278
     25 H          12.2268   18.5737   22.0463 H       1  UNL1        0.0278
     26 H          12.2312   18.4026   23.8082 H       1  UNL1        0.0278
     27 C          12.2460   16.8923   16.1629 C.ar    1  UNL1       -0.0422
     28 C          13.7850   17.3447   22.7881 C.ar    1  UNL1       -0.0422
     29 C           9.8639   18.5442   18.6150 C.3     1  UNL1       -0.0391
     30 H           8.8419   18.8545   18.4133 H       1  UNL1        0.0278
     31 H          10.3962   19.3897   19.0557 H       1  UNL1        0.0278
     32 H           9.8620   17.7281   19.3358 H       1  UNL1        0.0278
     33 C          10.2832   18.9268   13.6420 C.3     1  UNL1       -0.0397
     34 H          11.1167   19.1514   12.9778 H       1  UNL1        0.0278
     35 H           9.7056   19.8317   13.8105 H       1  UNL1        0.0278
     36 H           9.6401   18.2012   13.1399 H       1  UNL1        0.0278
     37 C          11.5882   17.2172   17.3532 C.ar    1  UNL1       -0.0102
     38 C          14.7018   17.6124   23.7918 C.ar    1  UNL1       -0.0553
     39 H          14.3972   18.2112   24.6388 H       1  UNL1        0.0623
     40 C          16.9991   17.5160   24.7812 C.3     1  UNL1       -0.0397
     41 H          16.5559   17.4226   25.7714 H       1  UNL1        0.0278
     42 H          17.3084   18.5542   24.6504 H       1  UNL1        0.0278
     43 H          17.8838   16.8842   24.7294 H       1  UNL1        0.0278
     44 C          15.4738   16.0835   21.6125 C.ar    1  UNL1       -0.0422
     45 C          15.8964   15.2163   20.4605 C.3     1  UNL1       -0.0391
     46 H          15.5191   15.6099   19.5181 H       1  UNL1        0.0278
     47 H          15.4934   14.2095   20.5759 H       1  UNL1        0.0278
     48 H          16.9812   15.1427   20.4064 H       1  UNL1        0.0278
     49 C          16.3757   16.3816   22.6239 C.ar    1  UNL1       -0.0553
     50 H          17.3874   16.0026   22.5576 H       1  UNL1        0.0623
     51 C          16.0075   17.1508   23.7169 C.ar    1  UNL1       -0.0499
@<TRIPOS>BOND
     1    34    33    1
     2    36    33    1
     3    33    35    1
     4    33    16    1
     5    18    17    1
     6    16    17   ar
     7    16    11   ar
     8    17    27   ar
     9    20    19    1
    10    12    11    1
    11    11     3   ar
    12    27    19    1
    13    27    37   ar
    14    19    21    1
    15    19    22    1
    16     3    37   ar
    17     3    29    1
    18    37    13    1
    19     6     5    1
    20    30    29    1
    21    13     5   ar
    22    13     2   ar
    23    29    31    1
    24    29    32    1
    25     5    14   ar
    26     4     1    1
    27    46    45    1
    28     1     2    1
    29     2     7   ar
    30    14    15    1
    31    14     8   ar
    32    48    45    1
    33    45    47    1
    34    45    44    1
    35     7     8   ar
    36     7    10    1
    37     8     9    1
    38    44    10   ar
    39    44    49   ar
    40    10    28   ar
    41    25    23    1
    42    50    49    1
    43    49    51   ar
    44    24    23    1
    45    28    23    1
    46    28    38   ar
    47    23    26    1
    48    51    38   ar
    49    51    40    1
    50    38    39    1
    51    42    40    1
    52    43    40    1
    53    40    41    1
