@<TRIPOS>MOLECULE
12
 81 85 0 0 0
SMALL
GASTEIGER

@<TRIPOS>ATOM
      1 SI         18.1761   25.1824   17.6327 Si      1  UNL1        0.0000
      2 O          17.4788   23.7049   17.3692 O.3     1  UNL1        0.0000
      3 O          16.2368   23.7973   19.2210 O.2     1  UNL1        0.0000
      4 N          15.8117   22.2005   17.6377 N.am    1  UNL1        0.0000
      5 C          15.8777   21.9417   15.1782 C.ar    1  UNL1        0.0000
      6 C          16.4756   23.2513   18.1709 C.2     1  UNL1        0.0000
      7 C          14.9189   24.1337   14.4771 C.ar    1  UNL1        0.0000
      8 C          16.3584   21.6039   16.4487 C.ar    1  UNL1        0.0000
      9 C          12.5308   24.4370   14.2444 C.ar    1  UNL1        0.0000
     10 C          21.1232   25.9662   20.4839 C.ar    1  UNL1        0.0000
     11 H          22.2015   26.0520   20.4955 H       1  UNL1        0.0000
     12 C          14.6544   21.7745   18.2544 C.3     1  UNL1        0.0000
     13 C          13.4226   22.2879   14.9204 C.ar    1  UNL1        0.0000
     14 C          17.5888   20.5743   14.1561 C.ar    1  UNL1        0.0000
     15 H          18.0706   20.1852   13.2700 H       1  UNL1        0.0000
     16 C          19.4247   25.2362   16.2104 C.ar    1  UNL1        0.0000
     17 C          13.8254   24.9254   14.1615 C.ar    1  UNL1        0.0000
     18 H          13.9909   25.9456   13.8402 H       1  UNL1        0.0000
     19 C          19.6129   24.1915   15.3117 C.ar    1  UNL1        0.0000
     20 H          19.0248   23.2924   15.4152 H       1  UNL1        0.0000
     21 C          17.4367   20.7152   16.5628 C.ar    1  UNL1        0.0000
     22 C          17.9536   20.1502   17.8364 C.ar    1  UNL1        0.0000
     23 C          20.5351   24.2870   14.2851 C.ar    1  UNL1        0.0000
     24 H          20.6630   23.4616   13.5983 H       1  UNL1        0.0000
     25 C          19.1819   20.5418   18.3710 C.ar    1  UNL1        0.0000
     26 C          21.1157   26.4887   15.0190 C.ar    1  UNL1        0.0000
     27 H          21.7015   27.3911   14.9079 H       1  UNL1        0.0000
     28 C          13.1883   20.8470   15.2355 C.3     1  UNL1        0.0000
     29 H          13.2134   20.6910   16.3217 H       1  UNL1        0.0000
     30 H          13.9531   20.2134   14.7885 H       1  UNL1        0.0000
     31 H          12.2104   20.5332   14.8850 H       1  UNL1        0.0000
     32 C          16.5014   21.4162   14.0498 C.ar    1  UNL1        0.0000
     33 H          16.1121   21.6836   13.0769 H       1  UNL1        0.0000
     34 C          16.9285   26.6141   17.4567 C.3     1  UNL1        0.0000
     35 H          16.2308   26.6198   18.2891 H       1  UNL1        0.0000
     36 H          16.3464   26.5398   16.5425 H       1  UNL1        0.0000
     37 H          17.4373   27.5738   17.4494 H       1  UNL1        0.0000
     38 C          14.7132   22.8224   14.9082 C.ar    1  UNL1        0.0000
     39 C          18.3715   25.7228   20.4455 C.ar    1  UNL1        0.0000
     40 H          17.3018   25.5895   20.4482 H       1  UNL1        0.0000
     41 C          12.3501   23.1108   14.6075 C.ar    1  UNL1        0.0000
     42 H          11.3540   22.6964   14.6503 H       1  UNL1        0.0000
     43 C          20.1905   26.3843   16.0411 C.ar    1  UNL1        0.0000
     44 H          20.0571   27.2081   16.7275 H       1  UNL1        0.0000
     45 C          21.2919   25.4361   14.1361 C.ar    1  UNL1        0.0000
     46 H          22.0146   25.5135   13.3355 H       1  UNL1        0.0000
     47 C          19.9870   21.6481   17.7586 C.3     1  UNL1        0.0000
     48 H          19.4514   22.5915   17.8225 H       1  UNL1        0.0000
     49 H          20.1831   21.4496   16.7056 H       1  UNL1        0.0000
     50 H          20.9387   21.7611   18.2739 H       1  UNL1        0.0000
     51 C          18.0403   20.2194   15.4111 C.ar    1  UNL1        0.0000
     52 H          18.8692   19.5326   15.5183 H       1  UNL1        0.0000
     53 C          19.0151   26.1101   21.6061 C.ar    1  UNL1        0.0000
     54 H          18.4373   26.3089   22.4973 H       1  UNL1        0.0000
     55 C          20.4740   25.5900   19.3215 C.ar    1  UNL1        0.0000
     56 H          21.0530   25.3895   18.4303 H       1  UNL1        0.0000
     57 C          17.2694   19.0624   18.3895 C.ar    1  UNL1        0.0000
     58 C          11.3567   25.3171   13.9326 C.3     1  UNL1        0.0000
     59 H          10.7684   24.9003   13.1150 H       1  UNL1        0.0000
     60 H          11.6853   26.3143   13.6468 H       1  UNL1        0.0000
     61 H          10.7092   25.4053   14.8050 H       1  UNL1        0.0000
     62 C          19.6796   19.8773   19.4840 C.ar    1  UNL1        0.0000
     63 H          20.6291   20.1897   19.8984 H       1  UNL1        0.0000
     64 C          19.0865   25.4724   19.2750 C.ar    1  UNL1        0.0000
     65 C          18.9934   18.8257   20.0700 C.ar    1  UNL1        0.0000
     66 C          16.0089   18.5599   17.7615 C.3     1  UNL1        0.0000
     67 H          16.1515   18.3681   16.6975 H       1  UNL1        0.0000
     68 H          15.2081   19.2977   17.8650 H       1  UNL1        0.0000
     69 H          15.6821   17.6446   18.2486 H       1  UNL1        0.0000
     70 C          16.3075   24.6716   14.3029 C.3     1  UNL1        0.0000
     71 H          16.2925   25.7484   14.1469 H       1  UNL1        0.0000
     72 H          16.7860   24.2122   13.4368 H       1  UNL1        0.0000
     73 H          16.9215   24.4484   15.1689 H       1  UNL1        0.0000
     74 C          17.7923   18.4259   19.5037 C.ar    1  UNL1        0.0000
     75 H          17.2527   17.5974   19.9363 H       1  UNL1        0.0000
     76 C          20.3929   26.2439   21.6268 C.ar    1  UNL1        0.0000
     77 H          20.8989   26.5555   22.5309 H       1  UNL1        0.0000
     78 C          19.5206   18.1385   21.2940 C.3     1  UNL1        0.0000
     79 H          18.9038   18.3957   22.1556 H       1  UNL1        0.0000
     80 H          20.5454   18.4397   21.5019 H       1  UNL1        0.0000
     81 H          19.4908   17.0567   21.1708 H       1  UNL1        0.0000
@<TRIPOS>BOND
     1    33    32    1
     2    59    58    1
     3    15    14    1
     4    46    45    1
     5    72    70    1
     6    24    23    1
     7    60    58    1
     8    18    17    1
     9    58     9    1
    10    58    61    1
    11    32    14   ar
    12    32     5   ar
    13    45    23   ar
    14    45    26   ar
    15    71    70    1
    16    14    51   ar
    17    17     9   ar
    18    17     7   ar
    19     9    41   ar
    20    23    19   ar
    21    70     7    1
    22    70    73    1
    23     7    38   ar
    24    41    42    1
    25    41    13   ar
    26    30    28    1
    27    31    28    1
    28    27    26    1
    29    38    13   ar
    30    38     5    1
    31    13    28    1
    32    26    43   ar
    33     5     8   ar
    34    28    29    1
    35    19    20    1
    36    19    16   ar
    37    51    52    1
    38    51    21   ar
    39    43    16   ar
    40    43    44    1
    41    16     1    1
    42     8    21   ar
    43     8     4    1
    44    36    34    1
    45    21    22    1
    46    67    66    1
    47    49    47    1
    48     2     1    1
    49     2     6    1
    50    37    34    1
    51    34     1    1
    52    34    35    1
    53     1    64    1
    54     4     6   am
    55     4    12    1
    56    47    48    1
    57    47    50    1
    58    47    25    1
    59    66    68    1
    60    66    69    1
    61    66    57    1
    62    22    25   ar
    63    22    57   ar
    64     6     3    2
    65    25    62   ar
    66    57    74   ar
    67    56    55    1
    68    64    55   ar
    69    64    39   ar
    70    55    10   ar
    71    62    63    1
    72    62    65   ar
    73    74    75    1
    74    74    65   ar
    75    65    78    1
    76    39    40    1
    77    39    53   ar
    78    10    11    1
    79    10    76   ar
    80    81    78    1
    81    78    80    1
    82    78    79    1
    83    53    76   ar
    84    53    54    1
    85    76    77    1
