@<TRIPOS>MOLECULE
30
 51 53 0 0 0
SMALL
GASTEIGER

@<TRIPOS>ATOM
      1 N          10.7311   22.6232   17.9907 N.pl3   1  UNL1       -0.2358
      2 C          11.4106   25.1502   19.1288 C.ar    1  UNL1       -0.0102
      3 C           8.8586   23.5733   16.8129 C.ar    1  UNL1        0.0058
      4 C           7.6896   21.4942   17.5212 C.ar    1  UNL1       -0.0422
      5 C           7.8435   21.8996   18.9549 C.3     1  UNL1       -0.0391
      6 H           7.6274   22.9602   19.0814 H       1  UNL1        0.0278
      7 H           8.8649   21.7257   19.2930 H       1  UNL1        0.0278
      8 H           7.1684   21.3240   19.5857 H       1  UNL1        0.0278
      9 C           8.2204   22.2784   16.4877 C.ar    1  UNL1       -0.0102
     10 C          14.2734   25.5833   22.2908 C.3     1  UNL1       -0.0397
     11 H          14.9302   24.7142   22.2779 H       1  UNL1        0.0278
     12 H          13.7980   25.6573   23.2670 H       1  UNL1        0.0278
     13 H          14.8910   26.4691   22.1379 H       1  UNL1        0.0278
     14 C          10.0058   23.6993   17.6255 C.ar    1  UNL1        0.0640
     15 C          12.7723   25.2196   18.8419 C.ar    1  UNL1       -0.0422
     16 C          13.2541   25.4556   21.1994 C.ar    1  UNL1       -0.0499
     17 C          13.2423   25.1214   17.4251 C.3     1  UNL1       -0.0391
     18 H          12.7222   25.8376   16.7890 H       1  UNL1        0.0278
     19 H          13.0412   24.1213   17.0424 H       1  UNL1        0.0278
     20 H          14.3119   25.2977   17.3593 H       1  UNL1        0.0278
     21 C           8.2227   24.7234   16.3588 C.ar    1  UNL1       -0.0522
     22 H           7.3378   24.6187   15.7454 H       1  UNL1        0.0624
     23 C          11.8962   25.4131   21.4666 C.ar    1  UNL1       -0.0553
     24 H          11.5434   25.4852   22.4863 H       1  UNL1        0.0623
     25 C           9.7458   26.1050   17.5719 C.ar    1  UNL1       -0.0522
     26 H          10.0736   27.0832   17.8990 H       1  UNL1        0.0624
     27 C          10.3949   24.9874   18.0617 C.ar    1  UNL1        0.0058
     28 C           8.6774   25.9845   16.6953 C.ar    1  UNL1       -0.0605
     29 H           8.1793   26.8649   16.3136 H       1  UNL1        0.0618
     30 C          11.7019   22.0571   18.4264 C.3     1  UNL1        0.1355
     31 C           9.5041   25.2024   20.7669 C.3     1  UNL1       -0.0391
     32 H           9.1511   24.1744   20.6864 H       1  UNL1        0.0278
     33 H           8.9240   25.8142   20.0768 H       1  UNL1        0.0278
     34 H           9.3227   25.5423   21.7834 H       1  UNL1        0.0278
     35 C           7.2924   20.7322   14.8880 C.ar    1  UNL1       -0.0553
     36 H           7.1348   20.4439   13.8565 H       1  UNL1        0.0623
     37 C           8.0030   21.8940   15.1611 C.ar    1  UNL1       -0.0422
     38 C           8.5074   22.7036   14.0006 C.3     1  UNL1       -0.0391
     39 H           8.9744   22.0573   13.2571 H       1  UNL1        0.0278
     40 H           9.2276   23.4471   14.3250 H       1  UNL1        0.0278
     41 H           7.6785   23.2196   13.5128 H       1  UNL1        0.0278
     42 C          13.6738   25.3719   19.8803 C.ar    1  UNL1       -0.0553
     43 H          14.7303   25.3819   19.6665 H       1  UNL1        0.0623
     44 C           6.9768   20.3462   17.2125 C.ar    1  UNL1       -0.0553
     45 H           6.5548   19.7546   18.0150 H       1  UNL1        0.0623
     46 C           6.7748   19.9421   15.9005 C.ar    1  UNL1       -0.0499
     47 C          10.9685   25.2625   20.4469 C.ar    1  UNL1       -0.0422
     48 C           6.0460   18.6685   15.5924 C.3     1  UNL1       -0.0397
     49 H           6.7454   17.8312   15.6166 H       1  UNL1        0.0278
     50 H           5.5960   18.7058   14.6023 H       1  UNL1        0.0278
     51 H           5.2670   18.4778   16.3284 H       1  UNL1        0.0278
@<TRIPOS>BOND
     1    39    38    1
     2    41    38    1
     3    36    35    1
     4    38    40    1
     5    38    37    1
     6    50    48    1
     7    35    37   ar
     8    35    46   ar
     9    37     9   ar
    10    48    49    1
    11    48    46    1
    12    48    51    1
    13    22    21    1
    14    46    44   ar
    15    29    28    1
    16    21    28   ar
    17    21     3   ar
    18     9     3    1
    19     9     4   ar
    20    28    25   ar
    21    18    17    1
    22     3    14   ar
    23    19    17    1
    24    44     4   ar
    25    44    45    1
    26    20    17    1
    27    17    15    1
    28     4     5    1
    29    25    26    1
    30    25    27   ar
    31    14     1    1
    32    14    27   ar
    33     1    30    1
    34    27     2    1
    35    15     2   ar
    36    15    42   ar
    37     5     6    1
    38     5     7    1
    39     5     8    1
    40     2    47   ar
    41    43    42    1
    42    42    16   ar
    43    33    31    1
    44    47    31    1
    45    47    23   ar
    46    32    31    1
    47    31    34    1
    48    16    23   ar
    49    16    10    1
    50    23    24    1
    51    13    10    1
    52    11    10    1
    53    10    12    1
