@<TRIPOS>MOLECULE
15
 51 53 0 0 0
SMALL
GASTEIGER

@<TRIPOS>ATOM
      1 N           2.3359   12.5847   12.4406 N.pl3   1  UNL1       -0.2358
      2 C           4.4364   14.5485   12.7725 C.ar    1  UNL1       -0.0102
      3 C           3.7680   14.2405   11.4852 C.ar    1  UNL1        0.0058
      4 C           2.2873   12.9400   10.0641 C.ar    1  UNL1        0.0058
      5 C           2.7846   13.2344   11.3566 C.ar    1  UNL1        0.0640
      6 C           1.3694   11.8165    9.7740 C.ar    1  UNL1       -0.0102
      7 C           1.8058   10.4995    9.9523 C.ar    1  UNL1       -0.0422
      8 C           5.6306   13.9027   13.0898 C.ar    1  UNL1       -0.0422
      9 C           3.9448   15.5547   13.6021 C.ar    1  UNL1       -0.0422
     10 C           4.6292   15.8722   14.7642 C.ar    1  UNL1       -0.0553
     11 H           4.2422   16.6454   15.4145 H       1  UNL1        0.0623
     12 C           6.3017   14.2511   14.2522 C.ar    1  UNL1       -0.0553
     13 H           7.2279   13.7498   14.5004 H       1  UNL1        0.0623
     14 C           5.8069   15.2241   15.1074 C.ar    1  UNL1       -0.0499
     15 C           1.7550   11.9549   13.2859 C.3     1  UNL1        0.1355
     16 C           4.1803   14.9559   10.3746 C.ar    1  UNL1       -0.0522
     17 H           4.9316   15.7248   10.5033 H       1  UNL1        0.0624
     18 C           0.1296   12.0541    9.1733 C.ar    1  UNL1       -0.0422
     19 C           3.1287   10.1949   10.5862 C.3     1  UNL1       -0.0391
     20 H           3.8787   10.9343   10.3077 H       1  UNL1        0.0278
     21 H           3.4720    9.2070   10.2909 H       1  UNL1        0.0278
     22 H           3.0237   10.2018   11.6720 H       1  UNL1        0.0278
     23 C           2.7301   13.6805    8.9779 C.ar    1  UNL1       -0.0522
     24 H           2.3484   13.4332    7.9966 H       1  UNL1        0.0624
     25 C          -0.6380   10.9834    8.7401 C.ar    1  UNL1       -0.0553
     26 H          -1.5941   11.1789    8.2708 H       1  UNL1        0.0623
     27 C           6.5133   15.5585   16.3869 C.3     1  UNL1       -0.0397
     28 H           6.4650   16.6271   16.5902 H       1  UNL1        0.0278
     29 H           7.5566   15.2520   16.3486 H       1  UNL1        0.0278
     30 H           6.0354   15.0369   17.2178 H       1  UNL1        0.0278
     31 C           1.0167    9.4527    9.5020 C.ar    1  UNL1       -0.0553
     32 H           1.3701    8.4401    9.6321 H       1  UNL1        0.0623
     33 C           3.6581   14.6964    9.1186 C.ar    1  UNL1       -0.0605
     34 H           3.9873   15.2627    8.2590 H       1  UNL1        0.0618
     35 C          -0.3985   13.4449    8.9604 C.3     1  UNL1       -0.0391
     36 H           0.1307   14.1671    9.5751 H       1  UNL1        0.0278
     37 H          -1.4603   13.4829    9.2017 H       1  UNL1        0.0278
     38 H          -0.2856   13.7385    7.9152 H       1  UNL1        0.0278
     39 C           2.6935   16.2829   13.2188 C.3     1  UNL1       -0.0391
     40 H           2.7834   16.6951   12.2132 H       1  UNL1        0.0278
     41 H           2.4868   17.0928   13.9153 H       1  UNL1        0.0278
     42 H           1.8559   15.5885   13.2229 H       1  UNL1        0.0278
     43 C           6.1795   12.8527   12.1689 C.3     1  UNL1       -0.0391
     44 H           5.4665   12.0359   12.0618 H       1  UNL1        0.0278
     45 H           7.1178   12.4538   12.5495 H       1  UNL1        0.0278
     46 H           6.3534   13.2687   11.1761 H       1  UNL1        0.0278
     47 C          -0.2004    9.6755    8.8782 C.ar    1  UNL1       -0.0499
     48 C          -1.0324    8.5316    8.3764 C.3     1  UNL1       -0.0397
     49 H          -1.4739    8.7684    7.4090 H       1  UNL1        0.0278
     50 H          -1.8449    8.3214    9.0731 H       1  UNL1        0.0278
     51 H          -0.4275    7.6332    8.2779 H       1  UNL1        0.0278
@<TRIPOS>BOND
     1    49    48    1
     2    38    35    1
     3    24    23    1
     4    34    33    1
     5    26    25    1
     6    51    48    1
     7    48    47    1
     8    48    50    1
     9    25    47   ar
    10    25    18   ar
    11    47    31   ar
    12    35    18    1
    13    35    37    1
    14    35    36    1
    15    23    33   ar
    16    23     4   ar
    17    33    16   ar
    18    18     6   ar
    19    31    32    1
    20    31     7   ar
    21     6     7   ar
    22     6     4    1
    23     7    19    1
    24     4     5   ar
    25    21    19    1
    26    20    19    1
    27    16    17    1
    28    16     3   ar
    29    19    22    1
    30    46    43    1
    31     5     3   ar
    32     5     1    1
    33     3     2    1
    34    44    43    1
    35    43    45    1
    36    43     8    1
    37    40    39    1
    38     1    15    1
    39     2     8   ar
    40     2     9   ar
    41     8    12   ar
    42    39    42    1
    43    39     9    1
    44    39    41    1
    45     9    10   ar
    46    12    13    1
    47    12    14   ar
    48    10    14   ar
    49    10    11    1
    50    14    27    1
    51    29    27    1
    52    27    28    1
    53    27    30    1
