@<TRIPOS>MOLECULE
17
 51 53 0 0 0
SMALL
GASTEIGER

@<TRIPOS>ATOM
      1 N          13.1472   22.1206   21.9887 N.pl3   1  UNL1       -0.2358
      2 C          14.3963   21.5178   23.9470 C.ar    1  UNL1        0.0058
      3 C          15.6405   19.9754   21.7146 C.3     1  UNL1       -0.0391
      4 H          15.4122   20.2011   20.6708 H       1  UNL1        0.0278
      5 H          14.7128   19.7284   22.2192 H       1  UNL1        0.0278
      6 H          16.2925   19.1047   21.7334 H       1  UNL1        0.0278
      7 C          11.3261   24.2481   25.1719 C.3     1  UNL1       -0.0391
      8 H          12.3072   24.2849   24.7016 H       1  UNL1        0.0278
      9 H          11.4360   23.7183   26.1186 H       1  UNL1        0.0278
     10 H          10.9963   25.2639   25.3835 H       1  UNL1        0.0278
     11 C          10.6864   22.3461   23.6468 C.ar    1  UNL1       -0.0102
     12 C          17.6896   23.2557   23.5058 C.ar    1  UNL1       -0.0553
     13 H          18.2253   24.0735   23.9705 H       1  UNL1        0.0623
     14 C          17.5823   21.4962   21.9121 C.ar    1  UNL1       -0.0553
     15 H          18.0272   20.9312   21.1083 H       1  UNL1        0.0623
     16 C          18.2951   22.5308   22.4915 C.ar    1  UNL1       -0.0499
     17 C          13.1857   21.8596   20.8172 C.3     1  UNL1        0.1355
     18 C          15.7170   21.8776   23.3724 C.ar    1  UNL1       -0.0102
     19 C          10.3432   23.5461   24.2787 C.ar    1  UNL1       -0.0422
     20 C          13.1723   21.8052   23.3002 C.ar    1  UNL1        0.0640
     21 C          11.9787   21.7310   24.0482 C.ar    1  UNL1        0.0058
     22 C          14.3801   20.9589   25.2146 C.ar    1  UNL1       -0.0522
     23 H          15.3235   20.7062   25.6801 H       1  UNL1        0.0624
     24 C           9.7654   21.7279   22.8015 C.ar    1  UNL1       -0.0422
     25 C           9.0803   24.0865   24.0911 C.ar    1  UNL1       -0.0553
     26 H           8.8195   25.0090   24.5947 H       1  UNL1        0.0623
     27 C          16.3118   21.1481   22.3452 C.ar    1  UNL1       -0.0422
     28 C          12.0081   21.1583   25.3127 C.ar    1  UNL1       -0.0522
     29 H          11.0772   21.0631   25.8575 H       1  UNL1        0.0624
     30 C          16.4106   22.9491   23.9469 C.ar    1  UNL1       -0.0422
     31 C          10.1038   20.4474   22.1077 C.3     1  UNL1       -0.0391
     32 H          10.3808   19.6885   22.8366 H       1  UNL1        0.0278
     33 H          10.9474   20.5964   21.4306 H       1  UNL1        0.0278
     34 H           9.2583   20.0831   21.5284 H       1  UNL1        0.0278
     35 C          13.1902   20.7172   25.8797 C.ar    1  UNL1       -0.0605
     36 H          13.1883   20.2393   26.8496 H       1  UNL1        0.0618
     37 C          15.8084   23.7603   25.0613 C.3     1  UNL1       -0.0391
     38 H          14.7295   23.8381   24.9521 H       1  UNL1        0.0278
     39 H          16.2348   24.7617   25.0757 H       1  UNL1        0.0278
     40 H          16.0105   23.2924   26.0262 H       1  UNL1        0.0278
     41 C           8.1427   23.4620   23.2841 C.ar    1  UNL1       -0.0499
     42 C          19.6930   22.8195   22.0321 C.3     1  UNL1       -0.0397
     43 H          20.1582   23.5915   22.6406 H       1  UNL1        0.0278
     44 H          19.6857   23.1544   20.9960 H       1  UNL1        0.0278
     45 H          20.2990   21.9152   22.0871 H       1  UNL1        0.0278
     46 C           6.7747   24.0455   23.0860 C.3     1  UNL1       -0.0397
     47 H           6.7258   24.5653   22.1284 H       1  UNL1        0.0278
     48 H           6.5366   24.7583   23.8730 H       1  UNL1        0.0278
     49 H           6.0184   23.2622   23.0800 H       1  UNL1        0.0278
     50 C           8.5102   22.2940   22.6350 C.ar    1  UNL1       -0.0553
     51 H           7.7933   21.8019   21.9923 H       1  UNL1        0.0623
@<TRIPOS>BOND
     1     4     3    1
     2    17     1    1
     3    44    42    1
     4    15    14    1
     5    33    31    1
     6    34    31    1
     7     3     6    1
     8     3     5    1
     9     3    27    1
    10    14    27   ar
    11    14    16   ar
    12     1    20    1
    13    51    50    1
    14    42    45    1
    15    42    16    1
    16    42    43    1
    17    31    24    1
    18    31    32    1
    19    47    46    1
    20    27    18   ar
    21    16    12   ar
    22    50    24   ar
    23    50    41   ar
    24    24    11   ar
    25    49    46    1
    26    46    41    1
    27    46    48    1
    28    41    25   ar
    29    20     2   ar
    30    20    21   ar
    31    18    30   ar
    32    18     2    1
    33    12    30   ar
    34    12    13    1
    35    11    21    1
    36    11    19   ar
    37    30    37    1
    38     2    22   ar
    39    21    28   ar
    40    25    19   ar
    41    25    26    1
    42    19     7    1
    43     8     7    1
    44    38    37    1
    45    37    39    1
    46    37    40    1
    47     7    10    1
    48     7     9    1
    49    22    23    1
    50    22    35   ar
    51    28    29    1
    52    28    35   ar
    53    35    36    1
