@<TRIPOS>MOLECULE
18
 67 69 0 0 0
SMALL
GASTEIGER

@<TRIPOS>ATOM
      1 SI         29.7089   -2.6468    8.6807 Si      1  UNL1        0.0000
      2 O          30.0108   -1.0052    8.5934 O.3     1  UNL1        0.0000
      3 O          29.1702   -0.8214   10.6472 O.2     1  UNL1        0.0000
      4 N          29.7733    1.0597    9.5101 N.am    1  UNL1        0.0000
      5 C          31.6471    2.8089    6.1365 C.ar    1  UNL1        0.0000
      6 H          32.1255    3.2931    5.2965 H       1  UNL1        0.0000
      7 C          31.8014    1.6907    8.2727 C.ar    1  UNL1        0.0000
      8 C          30.2754    2.6687    6.1780 C.ar    1  UNL1        0.0000
      9 H          29.6649    3.0291    5.3612 H       1  UNL1        0.0000
     10 C          32.7524    1.1637    9.2866 C.ar    1  UNL1        0.0000
     11 C          34.7537    0.2747   11.0263 C.ar    1  UNL1        0.0000
     12 C          30.4047    1.6029    8.3396 C.ar    1  UNL1        0.0000
     13 C          29.6419    2.0634    7.2586 C.ar    1  UNL1        0.0000
     14 C          32.4006    2.3002    7.1742 C.ar    1  UNL1        0.0000
     15 H          33.4798    2.3743    7.1530 H       1  UNL1        0.0000
     16 C          33.3987   -0.0503    9.0483 C.ar    1  UNL1        0.0000
     17 C          27.6324    0.8432    6.4437 C.ar    1  UNL1        0.0000
     18 C          29.3024    1.8968   10.5002 C.3     1  UNL1        0.0000
     19 C          28.1683    1.9316    7.1332 C.ar    1  UNL1        0.0000
     20 C          33.1424    1.9583   10.3655 C.ar    1  UNL1        0.0000
     21 C          29.6239   -0.2756    9.6678 C.2     1  UNL1        0.0000
     22 C          33.0990   -0.8465    7.8136 C.3     1  UNL1        0.0000
     23 H          32.0292   -0.8975    7.6382 H       1  UNL1        0.0000
     24 H          33.4959   -1.8561    7.9008 H       1  UNL1        0.0000
     25 H          33.5567   -0.3720    6.9438 H       1  UNL1        0.0000
     26 C          34.1341    1.5005   11.2208 C.ar    1  UNL1        0.0000
     27 H          34.4407    2.1228   12.0508 H       1  UNL1        0.0000
     28 C          27.3346    2.9698    7.5521 C.ar    1  UNL1        0.0000
     29 C          28.5344   -0.1935    5.8433 C.3     1  UNL1        0.0000
     30 H          29.0568    0.2220    4.9795 H       1  UNL1        0.0000
     31 H          27.9627   -1.0595    5.5151 H       1  UNL1        0.0000
     32 H          29.2853   -0.5131    6.5588 H       1  UNL1        0.0000
     33 C          32.5150    3.2927   10.5885 C.3     1  UNL1        0.0000
     34 H          33.2007    3.9683   11.0964 H       1  UNL1        0.0000
     35 H          31.6181    3.1756   11.2043 H       1  UNL1        0.0000
     36 H          32.2011    3.7449    9.6512 H       1  UNL1        0.0000
     37 C          25.4095    1.7477    6.7347 C.ar    1  UNL1        0.0000
     38 C          34.3745   -0.4879    9.9329 C.ar    1  UNL1        0.0000
     39 H          34.8664   -1.4344    9.7474 H       1  UNL1        0.0000
     40 C          25.9665    2.8487    7.3659 C.ar    1  UNL1        0.0000
     41 H          25.3228    3.6295    7.7348 H       1  UNL1        0.0000
     42 C          27.9123    4.2049    8.1543 C.3     1  UNL1        0.0000
     43 H          28.3282    3.9928    9.1456 H       1  UNL1        0.0000
     44 H          27.1548    4.9752    8.2708 H       1  UNL1        0.0000
     45 H          28.7266    4.5869    7.5417 H       1  UNL1        0.0000
     46 C          26.2594    0.7610    6.2607 C.ar    1  UNL1        0.0000
     47 H          25.8488   -0.0901    5.7325 H       1  UNL1        0.0000
     48 C          27.8429   -3.0099    8.7809 C.3     1  UNL1        0.0000
     49 H          27.4542   -2.7710    9.7656 H       1  UNL1        0.0000
     50 H          27.6349   -4.0576    8.5849 H       1  UNL1        0.0000
     51 H          27.2881   -2.4194    8.0555 H       1  UNL1        0.0000
     52 C          35.8131   -0.1969   11.9786 C.3     1  UNL1        0.0000
     53 H          36.5881    0.5605   12.0938 H       1  UNL1        0.0000
     54 H          36.2733   -1.1173   11.6256 H       1  UNL1        0.0000
     55 H          35.3790   -0.3820   12.9613 H       1  UNL1        0.0000
     56 C          23.9236    1.6606    6.5446 C.3     1  UNL1        0.0000
     57 H          23.4063    1.9464    7.4595 H       1  UNL1        0.0000
     58 H          23.6233    0.6514    6.2699 H       1  UNL1        0.0000
     59 H          23.6031    2.3401    5.7531 H       1  UNL1        0.0000
     60 C          30.6923   -3.4768   10.0795 C.3     1  UNL1        0.0000
     61 H          31.7616   -3.3518    9.9314 H       1  UNL1        0.0000
     62 H          30.4866   -4.5417   10.1311 H       1  UNL1        0.0000
     63 H          30.4357   -3.0327   11.0356 H       1  UNL1        0.0000
     64 C          30.3552   -3.3016    7.0094 C.3     1  UNL1        0.0000
     65 H          29.8559   -2.8480    6.1607 H       1  UNL1        0.0000
     66 H          30.1745   -4.3700    6.9624 H       1  UNL1        0.0000
     67 H          31.4210   -3.1460    6.8859 H       1  UNL1        0.0000
@<TRIPOS>BOND
     1    30    29    1
     2     6     5    1
     3     9     8    1
     4    31    29    1
     5    47    46    1
     6    59    56    1
     7    29    17    1
     8    29    32    1
     9     5     8   ar
    10     5    14   ar
    11    65    64    1
    12     8    13   ar
    13    46    17   ar
    14    46    37   ar
    15    58    56    1
    16    17    19   ar
    17    56    37    1
    18    56    57    1
    19    37    40   ar
    20    67    64    1
    21    25    22    1
    22    66    64    1
    23    64     1    1
    24    19    13    1
    25    19    28   ar
    26    15    14    1
    27    14     7   ar
    28    13    12   ar
    29    40    28   ar
    30    40    41    1
    31    45    42    1
    32    28    42    1
    33    23    22    1
    34    22    24    1
    35    22    16    1
    36    51    48    1
    37    42    44    1
    38    42    43    1
    39     7    12   ar
    40     7    10    1
    41    12     4    1
    42    50    48    1
    43     2     1    1
    44     2    21    1
    45     1    48    1
    46     1    60    1
    47    48    49    1
    48    16    10   ar
    49    16    38   ar
    50    10    20   ar
    51     4    21   am
    52     4    18    1
    53    36    33    1
    54    21     3    2
    55    39    38    1
    56    61    60    1
    57    38    11   ar
    58    60    62    1
    59    60    63    1
    60    20    33    1
    61    20    26   ar
    62    33    34    1
    63    33    35    1
    64    11    26   ar
    65    11    52    1
    66    26    27    1
    67    54    52    1
    68    52    53    1
    69    52    55    1
