@<TRIPOS>MOLECULE
3
 18 18 0 0 0
SMALL
GASTEIGER

@<TRIPOS>ATOM
      1 N           8.6115    8.6272    6.4245 N.pl3   1  UNL1       -0.3135
      2 N           7.6167   10.1905    5.3120 N.pl3   1  UNL1       -0.3067
      3 C           8.0648    9.3035    4.3450 C.2     1  UNL1        0.0676
      4 C           8.6843    8.3275    5.0839 C.2     1  UNL1        0.0167
      5 H           9.1703    7.4300    4.7535 H       1  UNL1        0.0800
      6 C           9.1588    7.8369    7.4932 C.3     1  UNL1        0.0023
      7 H           9.6189    6.9480    7.0673 H       1  UNL1        0.0428
      8 H           8.3761    7.5291    8.1890 H       1  UNL1        0.0428
      9 H           9.9205    8.3982    8.0380 H       1  UNL1        0.0428
     10 C           7.9537    9.7861    6.5401 C.3     1  UNL1        0.1365
     11 C           7.6490   10.5007    7.8031 C.3     1  UNL1       -0.0230
     12 H           8.1352   10.0180    8.6457 H       1  UNL1        0.0268
     13 H           6.5742   10.5155    7.9878 H       1  UNL1        0.0268
     14 H           7.9962   11.5315    7.7437 H       1  UNL1        0.0268
     15 C           6.9236   11.4188    5.0271 C.3     1  UNL1        0.0028
     16 H           7.6478   12.2256    4.8946 H       1  UNL1        0.0428
     17 H           6.2360   11.6613    5.8371 H       1  UNL1        0.0428
     18 H           6.3691   11.3024    4.0946 H       1  UNL1        0.0428
@<TRIPOS>BOND
     1    18    15    1
     2     3     4    2
     3     3     2    1
     4     5     4    1
     5    16    15    1
     6    15     2    1
     7    15    17    1
     8     4     1    1
     9     2    10    1
    10     1    10    1
    11     1     6    1
    12    10    11    1
    13     7     6    1
    14     6     9    1
    15     6     8    1
    16    14    11    1
    17    11    13    1
    18    11    12    1
