@<TRIPOS>MOLECULE
2
 15 14 0 0 0
SMALL
GASTEIGER

@<TRIPOS>ATOM
      1 SI          3.1949    9.4388   12.1301 Si      1  UNL1        0.0000
      2 C           3.9802   10.9401   12.9195 C.3     1  UNL1        0.0000
      3 C           3.0840    7.9465   13.3354 C.3     1  UNL1        0.0000
      4 C           1.4200    9.8341   11.5162 C.3     1  UNL1        0.0000
      5 C           4.2119    8.8398   10.6120 C.3     1  UNL1        0.0000
      6 H           5.0119   11.0890   12.5803 H       1  UNL1        0.0000
      7 H           2.4542    8.1867   14.1855 H       1  UNL1        0.0000
      8 H           4.0629    7.6595   13.7087 H       1  UNL1        0.0000
      9 H           2.6579    7.0783   12.8413 H       1  UNL1        0.0000
     10 H           1.4043   10.0963   10.4624 H       1  UNL1        0.0000
     11 H           1.0261   10.6727   12.0817 H       1  UNL1        0.0000
     12 H           0.7519    8.9888   11.6482 H       1  UNL1        0.0000
     13 H           5.2142    8.5388   10.9018 H       1  UNL1        0.0000
     14 H           4.3102    9.6217    9.8642 H       1  UNL1        0.0000
     15 H           3.7429    7.9870   10.1310 H       1  UNL1        0.0000
@<TRIPOS>BOND
     1    14     5    1
     2    15     5    1
     3    10     4    1
     4     5    13    1
     5     5     1    1
     6     4    12    1
     7     4    11    1
     8     4     1    1
     9     1     2    1
    10     1     3    1
    11     6     2    1
    12     9     3    1
    13     3     8    1
    14     3     7    1
