@<TRIPOS>MOLECULE
14
 16 15 0 0 0
SMALL
GASTEIGER

@<TRIPOS>ATOM
      1 SI          9.1262    2.7216    0.8158 Si      1  UNL1        0.0000
      2 C           7.4719    3.2963    0.0484 C.3     1  UNL1        0.0000
      3 H           6.7298    2.5045    0.0682 H       1  UNL1        0.0000
      4 H           7.6001    3.5985   -0.9866 H       1  UNL1        0.0000
      5 H           7.0602    4.1415    0.5890 H       1  UNL1        0.0000
      6 C          10.0970    1.8191   -0.5734 C.3     1  UNL1        0.0000
      7 H          11.0672    1.4841   -0.2198 H       1  UNL1        0.0000
      8 H          10.2669    2.4673   -1.4281 H       1  UNL1        0.0000
      9 H           9.5595    0.9450   -0.9283 H       1  UNL1        0.0000
     10 C          10.1486    4.2585    1.3132 C.3     1  UNL1        0.0000
     11 H           9.5289    5.0061    1.7963 H       1  UNL1        0.0000
     12 H          10.6135    4.7256    0.4504 H       1  UNL1        0.0000
     13 H          10.9383    3.9917    2.0084 H       1  UNL1        0.0000
     14 C           8.8940    1.5859    2.2917 C.3     1  UNL1        0.0000
     15 H           8.2662    0.7310    2.0103 H       1  UNL1        0.0000
     16 H           9.8731    1.1880    2.5700 H       1  UNL1        0.0000
@<TRIPOS>BOND
     1     8     6    1
     2     4     2    1
     3     9     6    1
     4     6     7    1
     5     6     1    1
     6     2     3    1
     7     2     5    1
     8     2     1    1
     9    12    10    1
    10     1    10    1
    11     1    14    1
    12    10    11    1
    13    10    13    1
    14    15    14    1
    15    14    16    1
