@<TRIPOS>MOLECULE
14
 16 15 0 0 0
SMALL
GASTEIGER

@<TRIPOS>ATOM
      1 SI          6.8257    2.7216    7.1501 Si      1  UNL1        0.0000
      2 C           8.4800    3.2960    7.9177 C.3     1  UNL1        0.0000
      3 H           9.2220    2.5042    7.8987 H       1  UNL1        0.0000
      4 H           8.3516    3.5989    8.9525 H       1  UNL1        0.0000
      5 H           8.8922    4.1408    7.3770 H       1  UNL1        0.0000
      6 C           5.8546    1.8192    8.5391 C.3     1  UNL1        0.0000
      7 H           4.8843    1.4844    8.1853 H       1  UNL1        0.0000
      8 H           5.6846    2.4673    9.3937 H       1  UNL1        0.0000
      9 H           6.3919    0.9450    8.8940 H       1  UNL1        0.0000
     10 C           5.8036    4.2586    6.6524 C.3     1  UNL1        0.0000
     11 H           6.4236    5.0063    6.1700 H       1  UNL1        0.0000
     12 H           5.3381    4.7254    7.5151 H       1  UNL1        0.0000
     13 H           5.0144    3.9919    5.9566 H       1  UNL1        0.0000
     14 C           7.0581    1.5858    5.6743 C.3     1  UNL1        0.0000
     15 H           7.6860    0.7310    5.9557 H       1  UNL1        0.0000
     16 H           6.0792    1.1878    5.3959 H       1  UNL1        0.0000
@<TRIPOS>BOND
     1    16    14    1
     2    14    15    1
     3    14     1    1
     4    13    10    1
     5    11    10    1
     6    10     1    1
     7    10    12    1
     8     1     2    1
     9     1     6    1
    10     5     2    1
    11     3     2    1
    12     2     4    1
    13     7     6    1
    14     6     9    1
    15     6     8    1
