@<TRIPOS>MOLECULE
2
 25 25 0 0 0
SMALL
GASTEIGER

@<TRIPOS>ATOM
      1 C           1.1992   16.8770    8.2206 C.2     1  UNL1       -0.0584
      2 C           1.6080   17.8467    9.2298 C.3     1  UNL1        0.0231
      3 C           2.6214   17.1761   10.0311 C.2     1  UNL1       -0.0584
      4 C           2.7270   15.8670    9.5901 C.2     1  UNL1       -0.0477
      5 C           1.8573   15.6877    8.4697 C.2     1  UNL1       -0.0477
      6 C           0.2582   17.1656    7.0918 C.3     1  UNL1       -0.0424
      7 H          -0.4383   17.9609    7.3594 H       1  UNL1        0.0275
      8 H          -0.3148   16.2774    6.8285 H       1  UNL1        0.0275
      9 H           0.8133   17.4821    6.2059 H       1  UNL1        0.0275
     10 C           1.6697   19.3232    8.9389 C.3     1  UNL1       -0.0510
     11 H           1.7973   19.8935    9.8552 H       1  UNL1        0.0242
     12 H           0.7574   19.6595    8.4518 H       1  UNL1        0.0242
     13 H           2.5129   19.5367    8.2790 H       1  UNL1        0.0242
     14 C           3.4713   17.8640   11.0548 C.3     1  UNL1       -0.0424
     15 H           2.9293   18.6853   11.5206 H       1  UNL1        0.0275
     16 H           4.3664   18.2749   10.5828 H       1  UNL1        0.0275
     17 H           3.7942   17.1753   11.8341 H       1  UNL1        0.0275
     18 C           3.6001   14.7931   10.1562 C.3     1  UNL1       -0.0395
     19 H           3.0286   13.8816   10.3341 H       1  UNL1        0.0278
     20 H           4.0472   15.1086   11.0959 H       1  UNL1        0.0278
     21 H           4.4069   14.5510    9.4626 H       1  UNL1        0.0278
     22 C           1.6465   14.4031    7.7366 C.3     1  UNL1       -0.0395
     23 H           2.4625   13.7088    7.9211 H       1  UNL1        0.0278
     24 H           1.5741   14.5778    6.6642 H       1  UNL1        0.0278
     25 H           0.7151   13.9313    8.0620 H       1  UNL1        0.0278
@<TRIPOS>BOND
     1     9     6    1
     2    24    22    1
     3     8     6    1
     4     6     7    1
     5     6     1    1
     6    22    23    1
     7    22    25    1
     8    22     5    1
     9     1     5    2
    10     1     2    1
    11    13    10    1
    12    12    10    1
    13     5     4    1
    14    10     2    1
    15    10    11    1
    16     2     3    1
    17    21    18    1
    18     4     3    2
    19     4    18    1
    20     3    14    1
    21    18    19    1
    22    18    20    1
    23    16    14    1
    24    14    15    1
    25    14    17    1
