@<TRIPOS>MOLECULE
2
 16 15 0 0 0
SMALL
GASTEIGER

@<TRIPOS>ATOM
      1 SI         -0.8927   16.2759   13.9959 Si      1  UNL1        0.0000
      2 C           0.4849   16.4631   12.6911 C.3     1  UNL1        0.0000
      3 H           1.2672   17.1153   13.0834 H       1  UNL1        0.0000
      4 H           0.9513   15.4854   12.5343 H       1  UNL1        0.0000
      5 C          -2.6189   16.3591   13.1792 C.3     1  UNL1        0.0000
      6 H          -3.4075   16.2028   13.9093 H       1  UNL1        0.0000
      7 H          -2.7277   15.5943   12.4145 H       1  UNL1        0.0000
      8 H          -2.7848   17.3231   12.7052 H       1  UNL1        0.0000
      9 C          -0.7315   17.6577   15.3075 C.3     1  UNL1        0.0000
     10 H          -1.5683   17.6375   15.9982 H       1  UNL1        0.0000
     11 H          -0.7027   18.6397   14.8482 H       1  UNL1        0.0000
     12 H           0.1756   17.5402   15.8922 H       1  UNL1        0.0000
     13 C          -0.7244   14.5800   14.8728 C.3     1  UNL1        0.0000
     14 H          -1.4895   14.4574   15.6328 H       1  UNL1        0.0000
     15 H           0.2400   14.4762   15.3609 H       1  UNL1        0.0000
     16 H          -0.8273   13.7583   14.1704 H       1  UNL1        0.0000
@<TRIPOS>BOND
     1     7     5    1
     2     4     2    1
     3     2     3    1
     4     2     1    1
     5     8     5    1
     6     5     6    1
     7     5     1    1
     8     1    13    1
     9     1     9    1
    10    16    13    1
    11    11     9    1
    12    13    15    1
    13    13    14    1
    14     9    12    1
    15     9    10    1
