@<TRIPOS>MOLECULE
2
 15 14 0 0 0
SMALL
GASTEIGER

@<TRIPOS>ATOM
      1 SI         -1.0748   20.3031   11.6608 Si      1  UNL1        0.0000
      2 C          -1.2826   18.7486   10.6331 C.3     1  UNL1        0.0000
      3 H          -2.2179   18.8135   10.0750 H       1  UNL1        0.0000
      4 C          -2.4944   20.4956   12.9375 C.3     1  UNL1        0.0000
      5 H          -2.3870   21.4124   13.5096 H       1  UNL1        0.0000
      6 H          -2.5188   19.6680   13.6385 H       1  UNL1        0.0000
      7 H          -3.4587   20.5323   12.4409 H       1  UNL1        0.0000
      8 C           0.5902   20.3223   12.6072 C.3     1  UNL1        0.0000
      9 H           0.4987   20.8493   13.5514 H       1  UNL1        0.0000
     10 H           1.3655   20.8232   12.0368 H       1  UNL1        0.0000
     11 H           0.9253   19.3126   12.8198 H       1  UNL1        0.0000
     12 C          -1.1215   21.8651   10.5461 C.3     1  UNL1        0.0000
     13 H          -0.9935   22.7697   11.1327 H       1  UNL1        0.0000
     14 H          -2.0697   21.9449   10.0247 H       1  UNL1        0.0000
     15 H          -0.3367   21.8449    9.7969 H       1  UNL1        0.0000
@<TRIPOS>BOND
     1    15    12    1
     2    14    12    1
     3     3     2    1
     4    12    13    1
     5    12     1    1
     6     2     1    1
     7     1     8    1
     8     1     4    1
     9    10     8    1
    10     7     4    1
    11     8    11    1
    12     8     9    1
    13     4     5    1
    14     4     6    1
