@<TRIPOS>MOLECULE
1
 14 13 0 0 0
SMALL
GASTEIGER

@<TRIPOS>ATOM
      1 C           2.1963    8.2939   11.9325 C.3     1  UNL1       -0.0027
      2 C           3.2942    7.7879   11.1137 C.3     1  UNL1       -0.0304
      3 C           3.4368    8.6710    9.8598 C.3     1  UNL1       -0.0595
      4 H           2.5250    8.6594    9.2671 H       1  UNL1        0.0235
      5 H           4.2567    8.3059    9.2444 H       1  UNL1        0.0235
      6 H           3.6468    9.6983   10.1488 H       1  UNL1        0.0235
      7 C           2.9977    6.3373   10.6894 C.3     1  UNL1       -0.0595
      8 H           2.8671    5.7032   11.5646 H       1  UNL1        0.0235
      9 H           3.8238    5.9467   10.0986 H       1  UNL1        0.0235
     10 H           2.0925    6.2927   10.0894 H       1  UNL1        0.0235
     11 C           4.6285    7.8118   11.8818 C.3     1  UNL1       -0.0595
     12 H           4.8899    8.8262   12.1659 H       1  UNL1        0.0235
     13 H           5.4195    7.4181   11.2462 H       1  UNL1        0.0235
     14 H           4.5699    7.2018   12.7785 H       1  UNL1        0.0235
@<TRIPOS>BOND
     1     5     3    1
     2     4     3    1
     3     3     6    1
     4     3     2    1
     5    10     7    1
     6     9     7    1
     7     7     2    1
     8     7     8    1
     9     2    11    1
    10     2     1    1
    11    13    11    1
    12    11    12    1
    13    11    14    1
