@<TRIPOS>MOLECULE
2
 16 15 0 0 0
SMALL
GASTEIGER

@<TRIPOS>ATOM
      1 SI         -4.1033   -0.8226    5.6848 Si      1  UNL1        0.0000
      2 C          -3.7256    1.0414    5.7053 C.3     1  UNL1        0.0000
      3 C          -5.4118   -1.2611    7.0182 C.3     1  UNL1        0.0000
      4 C          -4.7625   -1.4399    4.0018 C.3     1  UNL1        0.0000
      5 C          -2.5057   -1.7799    6.1377 C.3     1  UNL1        0.0000
      6 H          -3.7167    1.3634    6.7533 H       1  UNL1        0.0000
      7 H          -4.5688    1.5629    5.2406 H       1  UNL1        0.0000
      8 H          -6.3383   -0.7201    6.8547 H       1  UNL1        0.0000
      9 H          -5.0653   -1.0201    8.0188 H       1  UNL1        0.0000
     10 H          -5.6468   -2.3203    7.0013 H       1  UNL1        0.0000
     11 H          -4.7097   -2.5223    3.9294 H       1  UNL1        0.0000
     12 H          -4.1893   -1.0232    3.1793 H       1  UNL1        0.0000
     13 H          -5.8002   -1.1554    3.8559 H       1  UNL1        0.0000
     14 H          -2.0884   -1.4231    7.0788 H       1  UNL1        0.0000
     15 H          -1.7561   -1.6473    5.3601 H       1  UNL1        0.0000
     16 H          -2.6853   -2.8457    6.2454 H       1  UNL1        0.0000
@<TRIPOS>BOND
     1    12     4    1
     2    13     4    1
     3    11     4    1
     4     4     1    1
     5     7     2    1
     6    15     5    1
     7     1     2    1
     8     1     5    1
     9     1     3    1
    10     2     6    1
    11     5    16    1
    12     5    14    1
    13     8     3    1
    14    10     3    1
    15     3     9    1
