@<TRIPOS>MOLECULE
1
 4 3 0 0 0
SMALL
GASTEIGER

@<TRIPOS>ATOM
      1 C           5.5615    6.3164    2.0526 C.3     1  UNL1       -0.0681
      2 H           6.0312    6.5156    3.0177 H       1  UNL1        0.0227
      3 H           6.3369    5.9711    1.3708 H       1  UNL1        0.0227
      4 H           4.8521    5.4968    2.1761 H       1  UNL1        0.0227
@<TRIPOS>BOND
     1     3     1    1
     2     1     4    1
     3     1     2    1
