@<TRIPOS>MOLECULE
2
 16 15 0 0 0
SMALL
GASTEIGER

@<TRIPOS>ATOM
      1 SI          1.8443    0.7873    5.3746 Si      1  UNL1        0.0000
      2 C           0.6529    2.2181    5.6206 C.3     1  UNL1        0.0000
      3 H           0.1563    2.0697    6.5818 H       1  UNL1        0.0000
      4 H          -0.1200    2.1723    4.8464 H       1  UNL1        0.0000
      5 C           2.9306    0.8995    3.8049 C.3     1  UNL1        0.0000
      6 H           2.3477    1.1551    2.9266 H       1  UNL1        0.0000
      7 H           3.4203   -0.0497    3.6055 H       1  UNL1        0.0000
      8 H           3.7035    1.6507    3.9208 H       1  UNL1        0.0000
      9 C           3.0330    0.5723    6.8578 C.3     1  UNL1        0.0000
     10 H           3.6090    1.4751    7.0281 H       1  UNL1        0.0000
     11 H           3.7350   -0.2379    6.6820 H       1  UNL1        0.0000
     12 H           2.4959    0.3427    7.7725 H       1  UNL1        0.0000
     13 C           0.8399   -0.8423    5.2206 C.3     1  UNL1        0.0000
     14 H           0.1670   -0.9743    6.0622 H       1  UNL1        0.0000
     15 H           1.4906   -1.7108    5.1826 H       1  UNL1        0.0000
     16 H           0.2354   -0.8487    4.3186 H       1  UNL1        0.0000
@<TRIPOS>BOND
     1     6     5    1
     2     7     5    1
     3     5     8    1
     4     5     1    1
     5    16    13    1
     6     4     2    1
     7    15    13    1
     8    13     1    1
     9    13    14    1
    10     1     2    1
    11     1     9    1
    12     2     3    1
    13    11     9    1
    14     9    10    1
    15     9    12    1
