@<TRIPOS>MOLECULE
2
 16 15 0 0 0
SMALL
GASTEIGER

@<TRIPOS>ATOM
      1 SI         -2.3598    5.2139    5.9087 Si      1  UNL1        0.0000
      2 C          -0.5558    5.7434    5.7971 C.3     1  UNL1        0.0000
      3 H          -0.3055    6.3262    6.6727 H       1  UNL1        0.0000
      4 H          -0.4413    6.3788    4.9291 H       1  UNL1        0.0000
      5 C          -2.6196    3.4644    6.6321 C.3     1  UNL1        0.0000
      6 H          -2.1360    2.7025    6.0287 H       1  UNL1        0.0000
      7 H          -3.6744    3.2133    6.6969 H       1  UNL1        0.0000
      8 H          -2.2085    3.4170    7.6352 H       1  UNL1        0.0000
      9 C          -3.3338    6.3883    7.0744 C.3     1  UNL1        0.0000
     10 H          -2.9605    6.3162    8.0917 H       1  UNL1        0.0000
     11 H          -4.3902    6.1382    7.0954 H       1  UNL1        0.0000
     12 H          -3.2525    7.4255    6.7623 H       1  UNL1        0.0000
     13 C          -3.2126    5.3002    4.1972 C.3     1  UNL1        0.0000
     14 H          -3.2283    6.3177    3.8194 H       1  UNL1        0.0000
     15 H          -4.2405    4.9534    4.2442 H       1  UNL1        0.0000
     16 H          -2.6917    4.6976    3.4619 H       1  UNL1        0.0000
@<TRIPOS>BOND
     1    16    13    1
     2    14    13    1
     3    13    15    1
     4    13     1    1
     5     4     2    1
     6     2     1    1
     7     2     3    1
     8     1     5    1
     9     1     9    1
    10     6     5    1
    11     5     7    1
    12     5     8    1
    13    12     9    1
    14     9    11    1
    15     9    10    1
