@<TRIPOS>MOLECULE
1
 8 7 0 0 0
SMALL
GASTEIGER

@<TRIPOS>ATOM
      1 C           3.6237    7.9436    4.5177 C.3     1  UNL1       -0.0316
      2 H           3.1726    8.7301    5.1375 H       1  UNL1        0.0310
      3 H           3.9363    7.1232    5.1799 H       1  UNL1        0.0310
      4 C           4.7959    8.4855    3.8109 C.2     1  UNL1       -0.0908
      5 H           4.7157    9.5210    3.4912 H       1  UNL1        0.0566
      6 C           5.9317    7.8277    3.5660 C.2     1  UNL1       -0.1026
      7 H           6.0809    6.8108    3.8979 H       1  UNL1        0.0532
      8 H           6.7526    8.2825    3.0379 H       1  UNL1        0.0532
@<TRIPOS>BOND
     1     8     6    1
     2     5     4    1
     3     6     4    2
     4     6     7    1
     5     4     1    1
     6     1     2    1
     7     1     3    1
