@<TRIPOS>MOLECULE
6
 8 7 0 0 0
SMALL
GASTEIGER

@<TRIPOS>ATOM
      1 C           1.4198    3.5299    3.4996 C.2     1  UNL1       -0.1026
      2 H           1.4817    2.6041    2.9533 H       1  UNL1        0.0532
      3 H           2.0248    3.6025    4.3915 H       1  UNL1        0.0532
      4 C           0.6322    4.5364    3.1099 C.2     1  UNL1       -0.0908
      5 H           0.0231    4.4040    2.2168 H       1  UNL1        0.0566
      6 C           0.4865    5.8250    3.8071 C.3     1  UNL1       -0.0316
      7 H           0.6521    5.6856    4.8839 H       1  UNL1        0.0310
      8 H          -0.5259    6.2202    3.6613 H       1  UNL1        0.0310
@<TRIPOS>BOND
     1     5     4    1
     2     2     1    1
     3     4     1    2
     4     4     6    1
     5     1     3    1
     6     8     6    1
     7     6     7    1
