@<TRIPOS>MOLECULE
2
 19 18 0 0 0
SMALL
GASTEIGER

@<TRIPOS>ATOM
      1 SI          4.6438    6.8212   14.1868 Si      1  UNL1        0.0000
      2 C           5.6639    1.5946    7.9572 C.1     1  UNL1        0.0000
      3 C           5.2227    4.0132   10.8433 C.1     1  UNL1        0.0000
      4 C           5.5431    2.3855    8.8847 C.1     1  UNL1        0.0000
      5 C           5.3791    3.2455    9.9047 C.1     1  UNL1        0.0000
      6 C           4.8882    5.6337   12.8001 C.1     1  UNL1        0.0000
      7 C           5.0475    4.8632   11.8676 C.1     1  UNL1        0.0000
      8 C           3.1172    7.9072   13.8224 C.3     1  UNL1        0.0000
      9 H           3.2428    8.4616   12.8971 H       1  UNL1        0.0000
     10 H           2.2202    7.3032   13.7225 H       1  UNL1        0.0000
     11 H           2.9424    8.6276   14.6168 H       1  UNL1        0.0000
     12 C           4.3694    5.8508   15.8074 C.3     1  UNL1        0.0000
     13 H           3.4933    5.2126   15.7392 H       1  UNL1        0.0000
     14 H           5.2203    5.2151   16.0342 H       1  UNL1        0.0000
     15 H           4.2243    6.5196   16.6514 H       1  UNL1        0.0000
     16 C           6.1929    7.9240   14.3485 C.3     1  UNL1        0.0000
     17 H           7.0799    7.3295   14.5466 H       1  UNL1        0.0000
     18 H           6.3718    8.4835   13.4351 H       1  UNL1        0.0000
     19 H           6.0891    8.6405   15.1587 H       1  UNL1        0.0000
@<TRIPOS>BOND
     1     2     4    3
     2     4     5    1
     3     5     3    3
     4     3     7    1
     5     7     6    3
     6     6     1    1
     7     9     8    1
     8    18    16    1
     9    10     8    1
    10     8     1    1
    11     8    11    1
    12     1    16    1
    13     1    12    1
    14    16    17    1
    15    16    19    1
    16    13    12    1
    17    12    14    1
    18    12    15    1
