@<TRIPOS>MOLECULE
2
 19 18 0 0 0
SMALL
GASTEIGER

@<TRIPOS>ATOM
      1 SI          6.9016   -6.4168   -1.1697 Si      1  UNL1        0.0000
      2 C           5.8847   -1.1915    5.0615 C.1     1  UNL1        0.0000
      3 C           6.3232   -3.6121    2.1768 C.1     1  UNL1        0.0000
      4 C           6.0047   -1.9834    4.1348 C.1     1  UNL1        0.0000
      5 C           6.1678   -2.8440    3.1151 C.1     1  UNL1        0.0000
      6 C           6.6566   -5.2320    0.2192 C.1     1  UNL1        0.0000
      7 C           6.4978   -4.4620    1.1522 C.1     1  UNL1        0.0000
      8 C           8.4288   -7.5025   -0.8072 C.3     1  UNL1        0.0000
      9 H           8.3026   -8.0605    0.1159 H       1  UNL1        0.0000
     10 H           9.3250   -6.8979   -0.7036 H       1  UNL1        0.0000
     11 H           8.6056   -8.2197   -1.6041 H       1  UNL1        0.0000
     12 C           7.1759   -5.4429   -2.7883 C.3     1  UNL1        0.0000
     13 H           8.0509   -4.8035   -2.7181 H       1  UNL1        0.0000
     14 H           6.3241   -4.8082   -3.0145 H       1  UNL1        0.0000
     15 H           7.3227   -6.1100   -3.6333 H       1  UNL1        0.0000
     16 C           5.3531   -7.5198   -1.3346 C.3     1  UNL1        0.0000
     17 H           4.4659   -6.9252   -1.5316 H       1  UNL1        0.0000
     18 H           5.1739   -8.0817   -0.4226 H       1  UNL1        0.0000
     19 H           5.4576   -8.2344   -2.1464 H       1  UNL1        0.0000
@<TRIPOS>BOND
     1    15    12    1
     2    14    12    1
     3    12    13    1
     4    12     1    1
     5    19    16    1
     6    11     8    1
     7    17    16    1
     8    16     1    1
     9    16    18    1
    10     1     8    1
    11     1     6    1
    12     8    10    1
    13     8     9    1
    14     6     7    3
    15     7     3    1
    16     3     5    3
    17     5     4    1
    18     4     2    3
