@<TRIPOS>MOLECULE
2
 16 15 0 0 0
SMALL
GASTEIGER

@<TRIPOS>ATOM
      1 SI          0.0272   10.6899    3.3970 Si      1  UNL1        0.0000
      2 C           1.7432   10.0501    3.8568 C.3     1  UNL1        0.0000
      3 H           1.7032    8.9468    3.8109 H       1  UNL1        0.0000
      4 H           1.9180   10.2789    4.9217 H       1  UNL1        0.0000
      5 C          -1.4230   10.0726    4.4977 C.3     1  UNL1        0.0000
      6 H          -1.4836    8.9883    4.4945 H       1  UNL1        0.0000
      7 H          -2.3790   10.4538    4.1513 H       1  UNL1        0.0000
      8 H          -1.3004   10.3886    5.5295 H       1  UNL1        0.0000
      9 C          -0.3515   10.1290    1.6028 C.3     1  UNL1        0.0000
     10 H           0.5725   10.0497    1.0306 H       1  UNL1        0.0000
     11 H          -1.0016   10.8297    1.0894 H       1  UNL1        0.0000
     12 H          -0.8367    9.1583    1.5833 H       1  UNL1        0.0000
     13 C          -0.0098   12.6068    3.4882 C.3     1  UNL1        0.0000
     14 H           0.0303   12.9600    4.5146 H       1  UNL1        0.0000
     15 H          -0.9179   13.0044    3.0457 H       1  UNL1        0.0000
     16 H           0.8322   13.0389    2.9520 H       1  UNL1        0.0000
@<TRIPOS>BOND
     1    10     9    1
     2    11     9    1
     3    12     9    1
     4     9     1    1
     5    16    13    1
     6    15    13    1
     7     1    13    1
     8     1     2    1
     9     1     5    1
    10    13    14    1
    11     3     2    1
    12     2     4    1
    13     7     5    1
    14     6     5    1
    15     5     8    1
