@<TRIPOS>MOLECULE
2
 16 15 0 0 0
SMALL
GASTEIGER

@<TRIPOS>ATOM
      1 SI          5.8210    9.7723   -0.1495 Si      1  UNL1        0.0000
      2 C           4.4243    9.2624    1.0140 C.3     1  UNL1        0.0000
      3 H           4.6918    8.2964    1.4716 H       1  UNL1        0.0000
      4 H           3.5606    9.0280    0.3625 H       1  UNL1        0.0000
      5 C           7.5609    9.3642    0.5676 C.3     1  UNL1        0.0000
      6 H           7.8341   10.0101    1.3966 H       1  UNL1        0.0000
      7 H           8.3226    9.4869   -0.1961 H       1  UNL1        0.0000
      8 H           7.6159    8.3359    0.9132 H       1  UNL1        0.0000
      9 C           5.7546   11.6643   -0.4711 C.3     1  UNL1        0.0000
     10 H           4.9200   11.9124   -1.1204 H       1  UNL1        0.0000
     11 H           6.6591   12.0292   -0.9490 H       1  UNL1        0.0000
     12 H           5.6173   12.2230    0.4551 H       1  UNL1        0.0000
     13 C           5.7781    8.9207   -1.8705 C.3     1  UNL1        0.0000
     14 H           5.9079    7.8458   -1.7840 H       1  UNL1        0.0000
     15 H           6.5597    9.2927   -2.5267 H       1  UNL1        0.0000
     16 H           4.8272    9.0945   -2.3659 H       1  UNL1        0.0000
@<TRIPOS>BOND
     1    15    13    1
     2    16    13    1
     3    13    14    1
     4    13     1    1
     5    10     9    1
     6    11     9    1
     7     9     1    1
     8     9    12    1
     9     7     5    1
    10     1     5    1
    11     1     2    1
    12     4     2    1
    13     5     8    1
    14     5     6    1
    15     2     3    1
