@<TRIPOS>MOLECULE
2
 16 15 0 0 0
SMALL
GASTEIGER

@<TRIPOS>ATOM
      1 SI          6.7695    2.1234    6.4206 Si      1  UNL1        0.0000
      2 C           5.2761    2.8094    7.3481 C.3     1  UNL1        0.0000
      3 H           5.6495    3.3800    8.2103 H       1  UNL1        0.0000
      4 H           4.7157    1.9657    7.7717 H       1  UNL1        0.0000
      5 C           6.1970    0.8488    5.1048 C.3     1  UNL1        0.0000
      6 H           5.7598   -0.0273    5.5731 H       1  UNL1        0.0000
      7 H           7.0321    0.5103    4.4996 H       1  UNL1        0.0000
      8 H           5.4545    1.2724    4.4356 H       1  UNL1        0.0000
      9 C           8.0411    1.2044    7.5253 C.3     1  UNL1        0.0000
     10 H           8.4289    1.8560    8.3021 H       1  UNL1        0.0000
     11 H           8.8873    0.8447    6.9480 H       1  UNL1        0.0000
     12 H           7.5910    0.3465    8.0153 H       1  UNL1        0.0000
     13 C           7.7196    3.5234    5.5220 C.3     1  UNL1        0.0000
     14 H           7.0443    4.2886    5.1446 H       1  UNL1        0.0000
     15 H           8.2925    3.1447    4.6808 H       1  UNL1        0.0000
     16 H           8.4184    4.0127    6.1928 H       1  UNL1        0.0000
@<TRIPOS>BOND
     1     8     5    1
     2     7     5    1
     3    15    13    1
     4     5     6    1
     5     5     1    1
     6    14    13    1
     7    13    16    1
     8    13     1    1
     9     1     2    1
    10     1     9    1
    11    11     9    1
    12     2     4    1
    13     2     3    1
    14     9    12    1
    15     9    10    1
