@<TRIPOS>MOLECULE
6
 34 34 0 0 0
SMALL
GASTEIGER

@<TRIPOS>ATOM
      1 SI          2.1016    5.3518    8.8473 Si      1  UNL1        0.0000
      2 C           1.3849    5.8914    6.1015 C.2     1  UNL1        0.0000
      3 C           0.3872    5.3931    5.2949 C.2     1  UNL1        0.0000
      4 C           0.1092    4.0433    5.6848 C.2     1  UNL1        0.0000
      5 C           0.9359    3.7059    6.7292 C.2     1  UNL1        0.0000
      6 C           1.8092    4.8429    7.0381 C.3     1  UNL1        0.0000
      7 C           1.8705    7.3116    6.1404 C.3     1  UNL1        0.0000
      8 H           1.6473    7.8281    5.2071 H       1  UNL1        0.0000
      9 H           2.9444    7.3616    6.3160 H       1  UNL1        0.0000
     10 H           1.3697    7.8598    6.9406 H       1  UNL1        0.0000
     11 C          -0.3588    6.1131    4.2130 C.3     1  UNL1        0.0000
     12 H          -1.3235    6.4645    4.5834 H       1  UNL1        0.0000
     13 H          -0.5531    5.4567    3.3640 H       1  UNL1        0.0000
     14 H           0.1955    6.9795    3.8558 H       1  UNL1        0.0000
     15 C          -0.9469    3.2031    5.0376 C.3     1  UNL1        0.0000
     16 H          -0.9370    2.1866    5.4244 H       1  UNL1        0.0000
     17 H          -0.8111    3.1618    3.9545 H       1  UNL1        0.0000
     18 H          -1.9352    3.6247    5.2257 H       1  UNL1        0.0000
     19 C           0.8970    2.4316    7.5210 C.3     1  UNL1        0.0000
     20 H           0.2322    2.5411    8.3803 H       1  UNL1        0.0000
     21 H           1.8872    2.1639    7.8899 H       1  UNL1        0.0000
     22 H           0.5183    1.6060    6.9208 H       1  UNL1        0.0000
     23 C           0.4935    6.1033    9.5757 C.3     1  UNL1        0.0000
     24 H           0.1636    6.9655    9.0057 H       1  UNL1        0.0000
     25 H           0.6335    6.4196   10.6046 H       1  UNL1        0.0000
     26 H          -0.3144    5.3788    9.5586 H       1  UNL1        0.0000
     27 C           2.5936    3.9030   10.0083 C.3     1  UNL1        0.0000
     28 H           1.7727    3.2169   10.1800 H       1  UNL1        0.0000
     29 H           2.8859    4.2995   10.9757 H       1  UNL1        0.0000
     30 H           3.4350    3.3350    9.6210 H       1  UNL1        0.0000
     31 C           3.5215    6.6301    9.0282 C.3     1  UNL1        0.0000
     32 H           3.9459    6.5938   10.0270 H       1  UNL1        0.0000
     33 H           3.1743    7.6442    8.8626 H       1  UNL1        0.0000
     34 H           4.3236    6.4331    8.3177 H       1  UNL1        0.0000
@<TRIPOS>BOND
     1    13    11    1
     2    14    11    1
     3    17    15    1
     4    11    12    1
     5    11     3    1
     6    15    18    1
     7    15    16    1
     8    15     4    1
     9     8     7    1
    10     3     4    1
    11     3     2    2
    12     4     5    2
    13     2     7    1
    14     2     6    1
    15     7     9    1
    16     7    10    1
    17     5     6    1
    18     5    19    1
    19    22    19    1
    20     6     1    1
    21    19    21    1
    22    19    20    1
    23    34    31    1
    24     1    31    1
    25     1    23    1
    26     1    27    1
    27    33    31    1
    28    24    23    1
    29    31    32    1
    30    26    23    1
    31    23    25    1
    32    30    27    1
    33    27    28    1
    34    27    29    1
