@<TRIPOS>MOLECULE
13
 13 13 0 0 0
SMALL
GASTEIGER

@<TRIPOS>ATOM
      1 C          10.3381    7.2799    3.7567 C.ar    1  UNL1        0.0259
      2 C          10.0683    8.2088    4.7662 C.ar    1  UNL1       -0.0463
      3 H          10.7903    8.9885    4.9727 H       1  UNL1        0.0630
      4 C           8.8965    8.1340    5.4915 C.ar    1  UNL1       -0.0606
      5 H           8.6992    8.8586    6.2703 H       1  UNL1        0.0618
      6 C           7.9718    7.1357    5.2274 C.ar    1  UNL1       -0.0617
      7 H           7.0553    7.0797    5.7973 H       1  UNL1        0.0618
      8 C           8.2288    6.2096    4.2286 C.ar    1  UNL1       -0.0606
      9 H           7.5094    5.4291    4.0196 H       1  UNL1        0.0618
     10 C           9.3982    6.2775    3.4986 C.ar    1  UNL1       -0.0463
     11 H           9.5986    5.5541    2.7188 H       1  UNL1        0.0630
     12 C          11.5390    7.3516    3.0127 C.1     1  UNL1       -0.0525
     13 C          12.5702    7.4113    2.3751 C.1     1  UNL1       -0.0092
@<TRIPOS>BOND
     1    13    12    3
     2    11    10    1
     3    12     1    1
     4    10     1   ar
     5    10     8   ar
     6     1     2   ar
     7     9     8    1
     8     8     6   ar
     9     2     3    1
    10     2     4   ar
    11     6     4   ar
    12     6     7    1
    13     4     5    1
