@<TRIPOS>MOLECULE
2
 15 14 0 0 0
SMALL
GASTEIGER

@<TRIPOS>ATOM
      1 SI         18.6400    7.7179   -1.3152 Si      1  UNL1        0.0000
      2 C          16.0305    7.5926    0.2685 C.1     1  UNL1        0.0000
      3 C          17.0716    7.6421   -0.3629 C.1     1  UNL1        0.0000
      4 C          19.1167    5.9822   -1.9598 C.3     1  UNL1        0.0000
      5 H          19.2350    5.2788   -1.1402 H       1  UNL1        0.0000
      6 H          20.0518    6.0019   -2.5130 H       1  UNL1        0.0000
      7 H          18.3516    5.5864   -2.6220 H       1  UNL1        0.0000
      8 C          18.4557    8.8884   -2.8155 C.3     1  UNL1        0.0000
      9 H          17.6838    8.5365   -3.4944 H       1  UNL1        0.0000
     10 H          19.3803    8.9651   -3.3813 H       1  UNL1        0.0000
     11 H          18.1805    9.8906   -2.4988 H       1  UNL1        0.0000
     12 C          20.0613    8.3657   -0.2126 C.3     1  UNL1        0.0000
     13 H          19.8373    9.3560    0.1741 H       1  UNL1        0.0000
     14 H          20.9974    8.4309   -0.7607 H       1  UNL1        0.0000
     15 H          20.2249    7.7127    0.6402 H       1  UNL1        0.0000
@<TRIPOS>BOND
     1     9     8    1
     2    10     8    1
     3     8    11    1
     4     8     1    1
     5     7     4    1
     6     6     4    1
     7     4     1    1
     8     4     5    1
     9     1     3    1
    10     1    12    1
    11    14    12    1
    12     3     2    3
    13    12    13    1
    14    12    15    1
