@<TRIPOS>MOLECULE
1
 4 3 0 0 0
SMALL
GASTEIGER

@<TRIPOS>ATOM
      1 C           7.6129    3.0889   11.7672 C.3     1  UNL1       -0.0681
      2 H           7.4551    2.1004   11.3079 H       1  UNL1        0.0227
      3 H           6.8856    3.7730   11.3025 H       1  UNL1        0.0227
      4 H           7.3274    2.9944   12.8264 H       1  UNL1        0.0227
@<TRIPOS>BOND
     1     3     1    1
     2     2     1    1
     3     1     4    1
