@<TRIPOS>MOLECULE
2
 16 15 0 0 0
SMALL
GASTEIGER

@<TRIPOS>ATOM
      1 SI         11.5447   12.4269    9.9362 Si      1  UNL1        0.0000
      2 C          11.0229   12.1329   11.7290 C.3     1  UNL1        0.0000
      3 H          10.9331   13.1254   12.1927 H       1  UNL1        0.0000
      4 H          11.8590   11.6441   12.2461 H       1  UNL1        0.0000
      5 C          10.0935   13.0677    8.8538 C.3     1  UNL1        0.0000
      6 H           9.2935   12.3347    8.7881 H       1  UNL1        0.0000
      7 H           9.6739   13.9917    9.2441 H       1  UNL1        0.0000
      8 H          10.4289   13.2710    7.8410 H       1  UNL1        0.0000
      9 C          12.2332   10.8641    9.0717 C.3     1  UNL1        0.0000
     10 H          11.5208   10.0453    9.0727 H       1  UNL1        0.0000
     11 H          12.4851   11.0813    8.0375 H       1  UNL1        0.0000
     12 H          13.1374   10.5152    9.5597 H       1  UNL1        0.0000
     13 C          12.9083   13.7722    9.8177 C.3     1  UNL1        0.0000
     14 H          12.5658   14.7266   10.2078 H       1  UNL1        0.0000
     15 H          13.7892   13.4864   10.3841 H       1  UNL1        0.0000
     16 H          13.2189   13.9325    8.7899 H       1  UNL1        0.0000
@<TRIPOS>BOND
     1     8     5    1
     2    11     9    1
     3     6     5    1
     4    16    13    1
     5     5     7    1
     6     5     1    1
     7     9    10    1
     8     9    12    1
     9     9     1    1
    10    13     1    1
    11    13    14    1
    12    13    15    1
    13     1     2    1
    14     2     3    1
    15     2     4    1
