@<TRIPOS>MOLECULE
2
 16 15 0 0 0
SMALL
GASTEIGER

@<TRIPOS>ATOM
      1 SI          9.6491   11.8745   15.5944 Si      1  UNL1        0.0000
      2 C           8.2727   11.6873   14.3040 C.3     1  UNL1        0.0000
      3 H           7.7161   12.6297   14.2194 H       1  UNL1        0.0000
      4 H           7.5605   10.9386   14.6617 H       1  UNL1        0.0000
      5 C          10.9310   10.4622   15.4680 C.3     1  UNL1        0.0000
      6 H          11.7194   10.5667   16.2078 H       1  UNL1        0.0000
      7 H          10.4613    9.4948   15.6191 H       1  UNL1        0.0000
      8 H          11.3875   10.4431   14.4803 H       1  UNL1        0.0000
      9 C          10.5621   13.5527   15.3804 C.3     1  UNL1        0.0000
     10 H          11.2829   13.7009   16.1785 H       1  UNL1        0.0000
     11 H          11.1091   13.5951   14.4424 H       1  UNL1        0.0000
     12 H           9.8730   14.3930   15.4111 H       1  UNL1        0.0000
     13 C           8.9322   11.8771   17.3747 C.3     1  UNL1        0.0000
     14 H           9.7177   12.0011   18.1131 H       1  UNL1        0.0000
     15 H           8.2187   12.6827   17.5187 H       1  UNL1        0.0000
     16 H           8.4218   10.9449   17.5944 H       1  UNL1        0.0000
@<TRIPOS>BOND
     1     3     2    1
     2     2     4    1
     3     2     1    1
     4    11     9    1
     5     8     5    1
     6     9    12    1
     7     9     1    1
     8     9    10    1
     9     5     1    1
    10     5     7    1
    11     5     6    1
    12     1    13    1
    13    13    15    1
    14    13    16    1
    15    13    14    1
