@<TRIPOS>MOLECULE
2
 16 15 0 0 0
SMALL
GASTEIGER

@<TRIPOS>ATOM
      1 SI          5.4031   12.1185    2.8837 Si      1  UNL1        0.0000
      2 C           4.2826   11.2748    1.6293 C.3     1  UNL1        0.0000
      3 C           4.7233   13.7674    3.5938 C.3     1  UNL1        0.0000
      4 C           5.6657   10.9506    4.3801 C.3     1  UNL1        0.0000
      5 C           7.1209   12.5339    2.1413 C.3     1  UNL1        0.0000
      6 H           4.0570   11.9926    0.8314 H       1  UNL1        0.0000
      7 H           3.3222   11.0781    2.1242 H       1  UNL1        0.0000
      8 H           4.5660   14.4972    2.8055 H       1  UNL1        0.0000
      9 H           5.4028   14.2090    4.3168 H       1  UNL1        0.0000
     10 H           3.7698   13.6169    4.0907 H       1  UNL1        0.0000
     11 H           4.7387   10.8090    4.9275 H       1  UNL1        0.0000
     12 H           6.3965   11.3470    5.0781 H       1  UNL1        0.0000
     13 H           6.0136    9.9763    4.0493 H       1  UNL1        0.0000
     14 H           7.5407   11.6942    1.5928 H       1  UNL1        0.0000
     15 H           7.8301   12.8096    2.9164 H       1  UNL1        0.0000
     16 H           7.0527   13.3724    1.4562 H       1  UNL1        0.0000
@<TRIPOS>BOND
     1     6     2    1
     2    16     5    1
     3    14     5    1
     4     2     7    1
     5     2     1    1
     6     5     1    1
     7     5    15    1
     8     8     3    1
     9     1     3    1
    10     1     4    1
    11     3    10    1
    12     3     9    1
    13    13     4    1
    14     4    11    1
    15     4    12    1
