@<TRIPOS>MOLECULE
2
 16 15 0 0 0
SMALL
GASTEIGER

@<TRIPOS>ATOM
      1 SI          1.9133    8.8020   -1.0510 Si      1  UNL1        0.0000
      2 C           3.2977    7.8427   -0.2132 C.3     1  UNL1        0.0000
      3 C           0.7390    9.5134    0.2887 C.3     1  UNL1        0.0000
      4 C           2.6717   10.2764   -2.0229 C.3     1  UNL1        0.0000
      5 C           0.8165    7.8003   -2.2677 C.3     1  UNL1        0.0000
      6 H           3.7745    7.1713   -0.9364 H       1  UNL1        0.0000
      7 H           2.8809    7.2026    0.5722 H       1  UNL1        0.0000
      8 H           0.2210    8.7220    0.8214 H       1  UNL1        0.0000
      9 H          -0.0162   10.1572   -0.1504 H       1  UNL1        0.0000
     10 H           1.2886   10.1014    1.0186 H       1  UNL1        0.0000
     11 H           2.6227   11.1889   -1.4338 H       1  UNL1        0.0000
     12 H           2.1447   10.4661   -2.9533 H       1  UNL1        0.0000
     13 H           3.7181   10.0964   -2.2726 H       1  UNL1        0.0000
     14 H           1.4010    7.4105   -3.0955 H       1  UNL1        0.0000
     15 H           0.0214    8.4097   -2.6867 H       1  UNL1        0.0000
     16 H           0.3521    6.9545   -1.7701 H       1  UNL1        0.0000
@<TRIPOS>BOND
     1    14     5    1
     2    12     4    1
     3    15     5    1
     4    13     4    1
     5     5    16    1
     6     5     1    1
     7     4    11    1
     8     4     1    1
     9     1     2    1
    10     1     3    1
    11     6     2    1
    12     2     7    1
    13     9     3    1
    14     3     8    1
    15     3    10    1
