@<TRIPOS>MOLECULE
3
 38 39 0 0 0
SMALL
GASTEIGER

@<TRIPOS>ATOM
      1 P           5.4933    3.6109   15.1375 P.3     1  UNL1        0.0000
      2 SI          6.2775    6.0385   13.1506 Si      1  UNL1        0.0000
      3 C           5.0607    5.1860   14.3229 C.3     1  UNL1        0.0000
      4 H           4.8231    5.8589   15.1662 H       1  UNL1        0.0000
      5 C           6.0269    5.4417   11.3449 C.3     1  UNL1        0.0000
      6 H           6.7076    4.6326   11.1012 H       1  UNL1        0.0000
      7 H           6.2165    6.2509   10.6464 H       1  UNL1        0.0000
      8 H           5.0141    5.0856   11.1742 H       1  UNL1        0.0000
      9 C           8.1627    5.8943   13.4823 C.3     1  UNL1        0.0000
     10 H           8.4957    6.5515   14.2799 H       1  UNL1        0.0000
     11 H           8.7256    6.1539   12.5902 H       1  UNL1        0.0000
     12 H           8.4362    4.8805   13.7575 H       1  UNL1        0.0000
     13 C           5.8399    7.9024   13.2016 C.3     1  UNL1        0.0000
     14 H           4.7819    8.0640   13.0228 H       1  UNL1        0.0000
     15 H           6.3915    8.4488   12.4442 H       1  UNL1        0.0000
     16 H           6.0772    8.3515   14.1609 H       1  UNL1        0.0000
     17 C           6.5246    2.7585   13.8939 C.ar    1  UNL1        0.0000
     18 C           5.9264    2.4841   12.6660 C.ar    1  UNL1        0.0000
     19 H           4.9093    2.8267   12.4901 H       1  UNL1        0.0000
     20 C           6.6114    1.7959   11.6836 C.ar    1  UNL1        0.0000
     21 H           6.1361    1.5958   10.7338 H       1  UNL1        0.0000
     22 C           7.9051    1.3571   11.9169 C.ar    1  UNL1        0.0000
     23 H           8.4434    0.8177   11.1514 H       1  UNL1        0.0000
     24 C           8.5021    1.6103   13.1399 C.ar    1  UNL1        0.0000
     25 H           9.5098    1.2687   13.3296 H       1  UNL1        0.0000
     26 C           7.8179    2.3008   14.1251 C.ar    1  UNL1        0.0000
     27 H           8.2987    2.4893   15.0743 H       1  UNL1        0.0000
     28 C           6.7432    3.9257   16.4487 C.ar    1  UNL1        0.0000
     29 C           7.0561    2.8539   17.2843 C.ar    1  UNL1        0.0000
     30 H           6.6275    1.8824   17.0724 H       1  UNL1        0.0000
     31 C           7.8981    3.0315   18.3643 C.ar    1  UNL1        0.0000
     32 H           8.1449    2.1939   19.0014 H       1  UNL1        0.0000
     33 C           8.4185    4.2876   18.6375 C.ar    1  UNL1        0.0000
     34 H           9.0732    4.4291   19.4853 H       1  UNL1        0.0000
     35 C           8.0874    5.3620   17.8293 C.ar    1  UNL1        0.0000
     36 H           8.4832    6.3438   18.0482 H       1  UNL1        0.0000
     37 C           7.2466    5.1849   16.7447 C.ar    1  UNL1        0.0000
     38 H           6.9811    6.0242   16.1190 H       1  UNL1        0.0000
@<TRIPOS>BOND
     1     7     5    1
     2    21    20    1
     3     6     5    1
     4    23    22    1
     5     8     5    1
     6     5     2    1
     7    20    22   ar
     8    20    18   ar
     9    22    24   ar
    10    15    13    1
    11    19    18    1
    12    11     9    1
    13    18    17   ar
    14    14    13    1
    15    24    25    1
    16    24    26   ar
    17     2    13    1
    18     2     9    1
    19     2     3    1
    20    13    16    1
    21     9    12    1
    22     9    10    1
    23    17    26   ar
    24    17     1    1
    25    26    27    1
    26     3     1    1
    27     3     4    1
    28     1    28    1
    29    38    37    1
    30    28    37   ar
    31    28    29   ar
    32    37    35   ar
    33    30    29    1
    34    29    31   ar
    35    35    36    1
    36    35    33   ar
    37    31    33   ar
    38    31    32    1
    39    33    34    1
