@<TRIPOS>MOLECULE
11
 34 36 0 0 0
SMALL
GASTEIGER

@<TRIPOS>ATOM
      1 B           6.6271    1.3639   18.0075 B       1  UNL1        0.0000
      2 N           6.6890    0.5433   16.7985 N.pl3   1  UNL1        0.0000
      3 C           7.6999    1.3611   19.1059 C.3     1  UNL1        0.0000
      4 H           8.5360    0.6651   19.1178 H       1  UNL1        0.0000
      5 C           7.8005    2.4412   19.9773 C.2     1  UNL1        0.0000
      6 H           8.6488    2.5038   20.6529 H       1  UNL1        0.0000
      7 C           6.9079    3.5152   19.9529 C.2     1  UNL1        0.0000
      8 H           7.0818    4.3627   20.5996 H       1  UNL1        0.0000
      9 C           5.8071    3.5063   19.1078 C.3     1  UNL1        0.0000
     10 H           5.1547    4.3729   19.1075 H       1  UNL1        0.0000
     11 C           5.5563    2.4529   18.2105 C.3     1  UNL1        0.0000
     12 H           4.7381    2.6161   17.5066 H       1  UNL1        0.0000
     13 C           5.9039    0.8468   15.6667 C.ar    1  UNL1        0.0000
     14 C           5.7538    2.1536   15.2076 C.ar    1  UNL1        0.0000
     15 H           6.2785    2.9509   15.7111 H       1  UNL1        0.0000
     16 C           4.9637    2.4207   14.1050 C.ar    1  UNL1        0.0000
     17 H           4.8587    3.4388   13.7592 H       1  UNL1        0.0000
     18 C           4.3221    1.3929   13.4341 C.ar    1  UNL1        0.0000
     19 H           3.7053    1.6057   12.5740 H       1  UNL1        0.0000
     20 C           4.4925    0.0874   13.8643 C.ar    1  UNL1        0.0000
     21 H           4.0098   -0.7233   13.3382 H       1  UNL1        0.0000
     22 C           5.2782   -0.1860   14.9670 C.ar    1  UNL1        0.0000
     23 H           5.4266   -1.2079   15.2878 H       1  UNL1        0.0000
     24 C           7.6446   -0.4609   16.5773 C.ar    1  UNL1        0.0000
     25 C           8.3167   -0.5277   15.3531 C.ar    1  UNL1        0.0000
     26 H           8.0962    0.2027   14.5885 H       1  UNL1        0.0000
     27 C           9.2592   -1.5082   15.1183 C.ar    1  UNL1        0.0000
     28 H           9.7692   -1.5378   14.1664 H       1  UNL1        0.0000
     29 C           9.5586   -2.4455   16.0941 C.ar    1  UNL1        0.0000
     30 H          10.2950   -3.2122   15.9069 H       1  UNL1        0.0000
     31 C           8.9001   -2.3883   17.3097 C.ar    1  UNL1        0.0000
     32 H           9.1113   -3.1166   18.0798 H       1  UNL1        0.0000
     33 C           7.9547   -1.4087   17.5491 C.ar    1  UNL1        0.0000
     34 H           7.4389   -1.3903   18.4954 H       1  UNL1        0.0000
@<TRIPOS>BOND
     1    19    18    1
     2    21    20    1
     3    18    20   ar
     4    18    16   ar
     5    17    16    1
     6    20    22   ar
     7    16    14   ar
     8    28    27    1
     9    26    25    1
    10    22    23    1
    11    22    13   ar
    12    27    25   ar
    13    27    29   ar
    14    14    13   ar
    15    14    15    1
    16    25    24   ar
    17    13     2    1
    18    30    29    1
    19    29    31   ar
    20    24     2    1
    21    24    33   ar
    22     2     1    1
    23    31    33   ar
    24    31    32    1
    25    12    11    1
    26    33    34    1
    27     1    11    1
    28     1     3    1
    29    11     9    1
    30     3     4    1
    31     3     5    1
    32    10     9    1
    33     9     7    1
    34     7     5    2
    35     7     8    1
    36     5     6    1
