@<TRIPOS>MOLECULE
1
 16 15 0 0 0
SMALL
GASTEIGER

@<TRIPOS>ATOM
      1 C           3.1937    9.0624   -0.0302 C.3     1  UNL1        0.0000
      2 H           2.3098    8.4179   -0.0411 H       1  UNL1        0.0000
      3 H           2.9076    9.9470    0.5491 H       1  UNL1        0.0000
      4 SI          3.5599    9.5751   -1.8177 Si      1  UNL1        0.0000
      5 C           3.7187    7.9873   -2.8718 C.3     1  UNL1        0.0000
      6 H           4.1142    8.2053   -3.8583 H       1  UNL1        0.0000
      7 H           2.7504    7.5148   -3.0055 H       1  UNL1        0.0000
      8 H           4.3807    7.2631   -2.4051 H       1  UNL1        0.0000
      9 C           5.1575   10.6296   -1.8439 C.3     1  UNL1        0.0000
     10 H           5.4908   10.8061   -2.8616 H       1  UNL1        0.0000
     11 H           5.9701   10.1375   -1.3151 H       1  UNL1        0.0000
     12 H           4.9945   11.6003   -1.3858 H       1  UNL1        0.0000
     13 C           2.1740   10.6451   -2.5928 C.3     1  UNL1        0.0000
     14 H           2.4071   10.9155   -3.6172 H       1  UNL1        0.0000
     15 H           2.0288   11.5654   -2.0365 H       1  UNL1        0.0000
     16 H           1.2272   10.1156   -2.6011 H       1  UNL1        0.0000
@<TRIPOS>BOND
     1     6     5    1
     2    14    13    1
     3     7     5    1
     4     5     8    1
     5     5     4    1
     6    10     9    1
     7    16    13    1
     8    13    15    1
     9    13     4    1
    10     9     4    1
    11     9    12    1
    12     9    11    1
    13     4     1    1
    14     2     1    1
    15     1     3    1
