@<TRIPOS>MOLECULE
19
 19 19 0 0 0
SMALL
GASTEIGER

@<TRIPOS>ATOM
      1 N          11.2819    5.8720    4.6578 N.pl3   1  UNL1       -0.2365
      2 C          11.6430    4.6424    4.2319 C.ar    1  UNL1        0.0544
      3 C          12.9977    4.2695    4.2520 C.ar    1  UNL1       -0.0276
      4 C          13.3381    3.0013    3.8163 C.ar    1  UNL1       -0.0570
      5 H          14.3763    2.7010    3.8247 H       1  UNL1        0.0621
      6 C          12.3697    2.1175    3.3678 C.ar    1  UNL1       -0.0611
      7 H          12.6540    1.1318    3.0313 H       1  UNL1        0.0618
      8 C          11.0380    2.4990    3.3470 C.ar    1  UNL1       -0.0570
      9 H          10.2868    1.8081    2.9916 H       1  UNL1        0.0621
     10 C          10.6541    3.7569    3.7754 C.ar    1  UNL1       -0.0276
     11 C           9.2257    4.2071    3.7519 C.3     1  UNL1       -0.0379
     12 H           8.5724    3.4077    3.4122 H       1  UNL1        0.0278
     13 H           9.1113    5.0634    3.0865 H       1  UNL1        0.0278
     14 H           8.9133    4.5240    4.7466 H       1  UNL1        0.0278
     15 C          14.0217    5.2471    4.7398 C.3     1  UNL1       -0.0379
     16 H          13.8675    6.2223    4.2781 H       1  UNL1        0.0278
     17 H          15.0268    4.8967    4.5201 H       1  UNL1        0.0278
     18 H          13.9269    5.3802    5.8178 H       1  UNL1        0.0278
     19 C          11.2030    7.0304    4.9034 C.3     1  UNL1        0.1354
@<TRIPOS>BOND
     1     9     8    1
     2     7     6    1
     3    13    11    1
     4     8     6   ar
     5     8    10   ar
     6     6     4   ar
     7    12    11    1
     8    11    10    1
     9    11    14    1
    10    10     2   ar
    11     4     5    1
    12     4     3   ar
    13     2     3   ar
    14     2     1    1
    15     3    15    1
    16    16    15    1
    17    17    15    1
    18     1    19    1
    19    15    18    1
