@<TRIPOS>MOLECULE
15
 19 19 0 0 0
SMALL
GASTEIGER

@<TRIPOS>ATOM
      1 N          12.5307    8.5152    2.6175 N.pl3   1  UNL1       -0.2365
      2 C          12.9851    8.4103    1.3491 C.ar    1  UNL1        0.0544
      3 C          12.7585    7.2423    0.6033 C.ar    1  UNL1       -0.0276
      4 C          13.2199    7.1918   -0.7024 C.ar    1  UNL1       -0.0570
      5 H          13.0476    6.2970   -1.2835 H       1  UNL1        0.0621
      6 C          13.8910    8.2615   -1.2677 C.ar    1  UNL1       -0.0611
      7 H          14.2413    8.2031   -2.2873 H       1  UNL1        0.0618
      8 C          14.1106    9.4093   -0.5232 C.ar    1  UNL1       -0.0570
      9 H          14.6326   10.2456   -0.9660 H       1  UNL1        0.0621
     10 C          13.6666    9.5025    0.7827 C.ar    1  UNL1       -0.0276
     11 C          13.8900   10.7331    1.6050 C.3     1  UNL1       -0.0379
     12 H          14.2665   11.5472    0.9909 H       1  UNL1        0.0278
     13 H          14.6124   10.5314    2.3961 H       1  UNL1        0.0278
     14 H          12.9591   11.0363    2.0792 H       1  UNL1        0.0278
     15 C          12.0061    8.6510    3.6716 C.3     1  UNL1        0.1354
     16 C          12.0477    6.0702    1.2058 C.3     1  UNL1       -0.0379
     17 H          11.4560    5.5504    0.4552 H       1  UNL1        0.0278
     18 H          11.4007    6.3871    2.0203 H       1  UNL1        0.0278
     19 H          12.7681    5.3601    1.6132 H       1  UNL1        0.0278
@<TRIPOS>BOND
     1     7     6    1
     2     5     4    1
     3     6     4   ar
     4     6     8   ar
     5     9     8    1
     6     4     3   ar
     7     8    10   ar
     8    17    16    1
     9     3    16    1
    10     3     2   ar
    11    10     2   ar
    12    10    11    1
    13    12    11    1
    14    16    19    1
    15    16    18    1
    16     2     1    1
    17    11    14    1
    18    11    13    1
    19     1    15    1
