@<TRIPOS>MOLECULE
2
 16 15 0 0 0
SMALL
GASTEIGER

@<TRIPOS>ATOM
      1 SI          2.0543   -1.9026   -2.1461 Si      1  UNL1        0.0000
      2 C           1.7270   -1.6770   -3.9846 C.3     1  UNL1        0.0000
      3 H           2.0767   -2.6053   -4.4691 H       1  UNL1        0.0000
      4 H           2.4271   -0.8954   -4.3326 H       1  UNL1        0.0000
      5 C           1.5402   -0.3327   -1.1647 C.3     1  UNL1        0.0000
      6 H           0.7083    0.1741   -1.6461 H       1  UNL1        0.0000
      7 H           2.3622    0.3744   -1.1122 H       1  UNL1        0.0000
      8 H           1.2484   -0.5644   -0.1444 H       1  UNL1        0.0000
      9 C           3.8855   -2.2374   -1.6728 C.3     1  UNL1        0.0000
     10 H           4.5307   -1.4311   -2.0093 H       1  UNL1        0.0000
     11 H           4.2466   -3.1538   -2.1304 H       1  UNL1        0.0000
     12 H           4.0174   -2.3341   -0.5988 H       1  UNL1        0.0000
     13 C           1.0684   -3.4020   -1.4675 C.3     1  UNL1        0.0000
     14 H           1.4628   -4.3303   -1.8675 H       1  UNL1        0.0000
     15 H           0.0229   -3.3472   -1.7486 H       1  UNL1        0.0000
     16 H           1.1220   -3.4641   -0.3849 H       1  UNL1        0.0000
@<TRIPOS>BOND
     1     3     2    1
     2     4     2    1
     3     2     1    1
     4     1     9    1
     5     1    13    1
     6     1     5    1
     7    11     9    1
     8    10     9    1
     9    14    13    1
    10    15    13    1
    11     9    12    1
    12     6     5    1
    13    13    16    1
    14     5     7    1
    15     5     8    1
