@<TRIPOS>MOLECULE
2
 16 15 0 0 0
SMALL
GASTEIGER

@<TRIPOS>ATOM
      1 SI          0.3566   -3.5565   -7.7345 Si      1  UNL1        0.0000
      2 C          -0.7048   -3.0588   -6.2527 C.3     1  UNL1        0.0000
      3 H          -0.6782   -3.9037   -5.5459 H       1  UNL1        0.0000
      4 H          -1.7544   -2.9694   -6.5797 H       1  UNL1        0.0000
      5 C          -0.2806   -2.8749   -9.4111 C.3     1  UNL1        0.0000
      6 H          -0.2084   -1.7933   -9.4594 H       1  UNL1        0.0000
      7 H          -1.3167   -3.1467   -9.5873 H       1  UNL1        0.0000
      8 H           0.3034   -3.2744  -10.2349 H       1  UNL1        0.0000
      9 C           2.1546   -2.9222   -7.5137 C.3     1  UNL1        0.0000
     10 H           2.7059   -3.5456   -6.8164 H       1  UNL1        0.0000
     11 H           2.1621   -1.9052   -7.1233 H       1  UNL1        0.0000
     12 H           2.7014   -2.9253   -8.4518 H       1  UNL1        0.0000
     13 C           0.4738   -5.4612   -7.9631 C.3     1  UNL1        0.0000
     14 H          -0.4936   -5.8950   -8.1973 H       1  UNL1        0.0000
     15 H           0.8345   -5.9383   -7.0568 H       1  UNL1        0.0000
     16 H           1.1548   -5.7283   -8.7654 H       1  UNL1        0.0000
@<TRIPOS>BOND
     1     8     5    1
     2     7     5    1
     3     6     5    1
     4     5     1    1
     5    16    13    1
     6    12     9    1
     7    14    13    1
     8    13     1    1
     9    13    15    1
    10     1     9    1
    11     1     2    1
    12     9    11    1
    13     9    10    1
    14     4     2    1
    15     2     3    1
