@<TRIPOS>MOLECULE
2
 16 15 0 0 0
SMALL
GASTEIGER

@<TRIPOS>ATOM
      1 SI          6.5430    7.3410    8.0422 Si      1  UNL1        0.0000
      2 C           6.1417    5.5254    8.3073 C.3     1  UNL1        0.0000
      3 H           5.8574    5.3725    9.3584 H       1  UNL1        0.0000
      4 H           7.0593    4.9385    8.1691 H       1  UNL1        0.0000
      5 C           7.9994    8.0480    9.0716 C.3     1  UNL1        0.0000
      6 H           7.8019    7.9610   10.1356 H       1  UNL1        0.0000
      7 H           8.1784    9.0973    8.8560 H       1  UNL1        0.0000
      8 H           8.9200    7.5097    8.8675 H       1  UNL1        0.0000
      9 C           7.0126    7.6068    6.1995 C.3     1  UNL1        0.0000
     10 H           6.3053    7.1115    5.5376 H       1  UNL1        0.0000
     11 H           7.9981    7.2008    5.9919 H       1  UNL1        0.0000
     12 H           7.0322    8.6596    5.9359 H       1  UNL1        0.0000
     13 C           5.0037    8.3997    8.4672 C.3     1  UNL1        0.0000
     14 H           4.8416    8.4285    9.5404 H       1  UNL1        0.0000
     15 H           4.1077    7.9901    8.0092 H       1  UNL1        0.0000
     16 H           5.1133    9.4253    8.1282 H       1  UNL1        0.0000
@<TRIPOS>BOND
     1    10     9    1
     2    12     9    1
     3    11     9    1
     4     9     1    1
     5    15    13    1
     6     1     2    1
     7     1    13    1
     8     1     5    1
     9    16    13    1
    10     4     2    1
    11     2     3    1
    12    13    14    1
    13     7     5    1
    14     8     5    1
    15     5     6    1
