@<TRIPOS>MOLECULE
2
 16 15 0 0 0
SMALL
GASTEIGER

@<TRIPOS>ATOM
      1 SI         17.9273    6.4776   17.5866 Si      1  UNL1        0.0000
      2 C          17.7669    8.2562   16.9994 C.3     1  UNL1        0.0000
      3 H          18.7677    8.6048   16.7079 H       1  UNL1        0.0000
      4 H          17.4458    8.9041   17.8255 H       1  UNL1        0.0000
      5 C          19.0065    6.1910   19.1512 C.3     1  UNL1        0.0000
      6 H          20.0222    6.5415   18.9959 H       1  UNL1        0.0000
      7 H          19.0606    5.1391   19.4148 H       1  UNL1        0.0000
      8 H          18.6070    6.7226   20.0098 H       1  UNL1        0.0000
      9 C          16.1954    5.7566   17.9924 C.3     1  UNL1        0.0000
     10 H          15.8360    6.1117   18.9534 H       1  UNL1        0.0000
     11 H          16.2188    4.6723   18.0381 H       1  UNL1        0.0000
     12 H          15.4711    6.0449   17.2333 H       1  UNL1        0.0000
     13 C          18.7143    5.4639   16.1638 C.3     1  UNL1        0.0000
     14 H          18.2773    5.7454   15.2069 H       1  UNL1        0.0000
     15 H          18.5727    4.3962   16.2975 H       1  UNL1        0.0000
     16 H          19.7830    5.6453   16.1051 H       1  UNL1        0.0000
@<TRIPOS>BOND
     1    14    13    1
     2    16    13    1
     3    13    15    1
     4    13     1    1
     5     3     2    1
     6     2     1    1
     7     2     4    1
     8    12     9    1
     9     1     9    1
    10     1     5    1
    11     9    11    1
    12     9    10    1
    13     6     5    1
    14     5     7    1
    15     5     8    1
