@<TRIPOS>MOLECULE
2
 16 15 0 0 0
SMALL
GASTEIGER

@<TRIPOS>ATOM
      1 SI         14.4660    6.9496   12.4265 Si      1  UNL1        0.0000
      2 C          15.3472    6.6326   14.0628 C.3     1  UNL1        0.0000
      3 H          16.1673    5.9295   13.8661 H       1  UNL1        0.0000
      4 H          14.6693    6.1018   14.7423 H       1  UNL1        0.0000
      5 C          15.1822    8.5057   11.5669 C.3     1  UNL1        0.0000
      6 H          14.9798    9.4088   12.1400 H       1  UNL1        0.0000
      7 H          14.7653    8.6483   10.5735 H       1  UNL1        0.0000
      8 H          16.2614    8.4174   11.4595 H       1  UNL1        0.0000
      9 C          12.5797    7.2138   12.6700 C.3     1  UNL1        0.0000
     10 H          12.1229    6.3490   13.1412 H       1  UNL1        0.0000
     11 H          12.0833    7.3630   11.7164 H       1  UNL1        0.0000
     12 H          12.3641    8.0802   13.2865 H       1  UNL1        0.0000
     13 C          14.6321    5.5089   11.1685 C.3     1  UNL1        0.0000
     14 H          15.6750    5.3179   10.9348 H       1  UNL1        0.0000
     15 H          14.1220    5.7247   10.2346 H       1  UNL1        0.0000
     16 H          14.2135    4.5893   11.5653 H       1  UNL1        0.0000
@<TRIPOS>BOND
     1    15    13    1
     2     7     5    1
     3    14    13    1
     4    13    16    1
     5    13     1    1
     6     8     5    1
     7     5     6    1
     8     5     1    1
     9    11     9    1
    10     1     9    1
    11     1     2    1
    12     9    10    1
    13     9    12    1
    14     3     2    1
    15     2     4    1
