@<TRIPOS>MOLECULE
4
 40 39 0 0 0
SMALL
GASTEIGER

@<TRIPOS>ATOM
      1 SI          6.1103   10.5507    8.1711 Si      1  UNL1        0.0000
      2 SI          7.2573   12.5422    5.9544 Si      1  UNL1        0.0000
      3 SI          7.4615    9.3850    5.5251 Si      1  UNL1        0.0000
      4 C           6.5984   10.8284    6.3734 C.3     1  UNL1        0.0000
      5 C           7.4552    9.7947    9.3201 C.3     1  UNL1        0.0000
      6 H           7.8502    8.8729    8.9088 H       1  UNL1        0.0000
      7 H           7.0733    9.5778   10.3140 H       1  UNL1        0.0000
      8 H           8.2869   10.4833    9.4282 H       1  UNL1        0.0000
      9 C           4.5946    9.3622    8.1621 C.3     1  UNL1        0.0000
     10 H           4.0667    9.4822    7.2048 H       1  UNL1        0.0000
     11 H           3.8866    9.5666    8.9601 H       1  UNL1        0.0000
     12 H           4.8926    8.3226    8.2420 H       1  UNL1        0.0000
     13 C           5.5336   12.0937    9.1625 C.3     1  UNL1        0.0000
     14 H           6.3464   12.7991    9.2943 H       1  UNL1        0.0000
     15 H           5.1779   11.8155   10.1513 H       1  UNL1        0.0000
     16 H           4.7283   12.6125    8.6574 H       1  UNL1        0.0000
     17 C           8.5960   13.2569    7.1363 C.3     1  UNL1        0.0000
     18 H           8.2575   13.2447    8.1659 H       1  UNL1        0.0000
     19 H           8.8630   14.2802    6.8867 H       1  UNL1        0.0000
     20 H           9.4994   12.6577    7.0857 H       1  UNL1        0.0000
     21 C           5.7483   13.7385    5.9601 C.3     1  UNL1        0.0000
     22 H           4.8484   13.1590    5.7100 H       1  UNL1        0.0000
     23 H           5.8373   14.5438    5.2367 H       1  UNL1        0.0000
     24 H           5.5878   14.1850    6.9351 H       1  UNL1        0.0000
     25 C           8.0641   12.7611    4.2231 C.3     1  UNL1        0.0000
     26 H           8.9718   12.1741    4.1381 H       1  UNL1        0.0000
     27 H           8.3275   13.7997    4.0399 H       1  UNL1        0.0000
     28 H           7.3955   12.4467    3.4314 H       1  UNL1        0.0000
     29 C           9.3847    9.3988    5.5502 C.3     1  UNL1        0.0000
     30 H           9.7474    9.3047    6.5687 H       1  UNL1        0.0000
     31 H           9.7761   10.3280    5.1524 H       1  UNL1        0.0000
     32 H           9.8101    8.5843    4.9704 H       1  UNL1        0.0000
     33 C           6.8876    9.3901    3.6867 C.3     1  UNL1        0.0000
     34 H           6.8308    8.3959    3.2529 H       1  UNL1        0.0000
     35 H           7.5401    9.9882    3.0604 H       1  UNL1        0.0000
     36 H           5.8838    9.8361    3.6385 H       1  UNL1        0.0000
     37 C           7.0454    7.6249    6.1770 C.3     1  UNL1        0.0000
     38 H           5.9766    7.4519    6.1971 H       1  UNL1        0.0000
     39 H           7.4194    7.4837    7.1849 H       1  UNL1        0.0000
     40 H           7.4925    6.8569    5.5511 H       1  UNL1        0.0000
@<TRIPOS>BOND
     1    35    33    1
     2    34    33    1
     3    28    25    1
     4    36    33    1
     5    33     3    1
     6    27    25    1
     7    26    25    1
     8    25     2    1
     9    32    29    1
    10    31    29    1
    11    23    21    1
    12     3    29    1
    13     3    37    1
    14     3     4    1
    15    29    30    1
    16    40    37    1
    17    22    21    1
    18     2    21    1
    19     2     4    1
    20     2    17    1
    21    21    24    1
    22    37    38    1
    23    37    39    1
    24     4     1    1
    25    19    17    1
    26    20    17    1
    27    17    18    1
    28    10     9    1
    29     9     1    1
    30     9    12    1
    31     9    11    1
    32     1    13    1
    33     1     5    1
    34    16    13    1
    35     6     5    1
    36    13    14    1
    37    13    15    1
    38     5     8    1
    39     5     7    1
