@<TRIPOS>MOLECULE
4
 40 39 0 0 0
SMALL
GASTEIGER

@<TRIPOS>ATOM
      1 SI          2.9863   11.0924    2.4683 Si      1  UNL1        0.0000
      2 SI          1.8393    9.1009    4.6851 Si      1  UNL1        0.0000
      3 SI          1.6353   12.2580    5.1144 Si      1  UNL1        0.0000
      4 C           2.4984   10.8146    4.2661 C.3     1  UNL1        0.0000
      5 C           1.6415   11.8484    1.3195 C.3     1  UNL1        0.0000
      6 H           1.2466   12.7702    1.7308 H       1  UNL1        0.0000
      7 H           2.0233   12.0653    0.3255 H       1  UNL1        0.0000
      8 H           0.8098   11.1598    1.2113 H       1  UNL1        0.0000
      9 C           4.5021   12.2809    2.4773 C.3     1  UNL1        0.0000
     10 H           5.0302   12.1611    3.4345 H       1  UNL1        0.0000
     11 H           5.2101   12.0765    1.6793 H       1  UNL1        0.0000
     12 H           4.2040   13.3204    2.3975 H       1  UNL1        0.0000
     13 C           3.5631    9.5493    1.4770 C.3     1  UNL1        0.0000
     14 H           2.7503    8.8439    1.3453 H       1  UNL1        0.0000
     15 H           3.9187    9.8276    0.4882 H       1  UNL1        0.0000
     16 H           4.3683    9.0305    1.9821 H       1  UNL1        0.0000
     17 C           0.5006    8.3862    3.5032 C.3     1  UNL1        0.0000
     18 H           0.8391    8.3985    2.4735 H       1  UNL1        0.0000
     19 H           0.2337    7.3629    3.7527 H       1  UNL1        0.0000
     20 H          -0.4027    8.9855    3.5539 H       1  UNL1        0.0000
     21 C           3.3483    7.9044    4.6793 C.3     1  UNL1        0.0000
     22 H           4.2483    8.4836    4.9295 H       1  UNL1        0.0000
     23 H           3.2592    7.0990    5.4027 H       1  UNL1        0.0000
     24 H           3.5087    7.4579    3.7043 H       1  UNL1        0.0000
     25 C           1.0325    8.8819    6.4164 C.3     1  UNL1        0.0000
     26 H           0.1249    9.4689    6.5014 H       1  UNL1        0.0000
     27 H           0.7691    7.8433    6.5995 H       1  UNL1        0.0000
     28 H           1.7011    9.1962    7.2082 H       1  UNL1        0.0000
     29 C          -0.2880   12.2442    5.0892 C.3     1  UNL1        0.0000
     30 H          -0.6507   12.3383    4.0708 H       1  UNL1        0.0000
     31 H          -0.6794   11.3151    5.4871 H       1  UNL1        0.0000
     32 H          -0.7134   13.0587    5.6691 H       1  UNL1        0.0000
     33 C           2.2092   12.2528    6.9527 C.3     1  UNL1        0.0000
     34 H           2.2662   13.2470    7.3866 H       1  UNL1        0.0000
     35 H           1.5567   11.6547    7.5790 H       1  UNL1        0.0000
     36 H           3.2131   11.8067    7.0004 H       1  UNL1        0.0000
     37 C           2.0513   14.0181    4.4625 C.3     1  UNL1        0.0000
     38 H           3.1201   14.1911    4.4424 H       1  UNL1        0.0000
     39 H           1.6773   14.1594    3.4546 H       1  UNL1        0.0000
     40 H           1.6043   14.7862    5.0884 H       1  UNL1        0.0000
@<TRIPOS>BOND
     1     7     5    1
     2    15    13    1
     3     8     5    1
     4     5     6    1
     5     5     1    1
     6    14    13    1
     7    13    16    1
     8    13     1    1
     9    11     9    1
    10    12     9    1
    11     1     9    1
    12     1     4    1
    13    18    17    1
    14     9    10    1
    15    39    37    1
    16    17    20    1
    17    17    19    1
    18    17     2    1
    19    24    21    1
    20    30    29    1
    21     4     2    1
    22     4     3    1
    23    38    37    1
    24    37    40    1
    25    37     3    1
    26    21     2    1
    27    21    22    1
    28    21    23    1
    29     2    25    1
    30    29     3    1
    31    29    31    1
    32    29    32    1
    33     3    33    1
    34    25    26    1
    35    25    27    1
    36    25    28    1
    37    33    36    1
    38    33    34    1
    39    33    35    1
