@<TRIPOS>MOLECULE
10
 22 22 0 0 0
SMALL
GASTEIGER

@<TRIPOS>ATOM
      1 SI          6.2856    1.4697    4.4144 Si      1  UNL1        0.0000
      2 C           3.7871    2.9416    4.4321 C.2     1  UNL1        0.0000
      3 H           3.8163    3.1487    5.4925 H       1  UNL1        0.0000
      4 C           3.0978    3.6550    3.4795 C.2     1  UNL1        0.0000
      5 H           2.4254    4.4781    3.6650 H       1  UNL1        0.0000
      6 C           3.4228    3.1423    2.2053 C.2     1  UNL1        0.0000
      7 H           3.0294    3.5079    1.2701 H       1  UNL1        0.0000
      8 C           4.3262    2.1171    2.3566 C.2     1  UNL1        0.0000
      9 H           4.8135    1.5702    1.5630 H       1  UNL1        0.0000
     10 C           4.5787    1.9165    3.7707 C.3     1  UNL1        0.0000
     11 C           7.4435    3.0045    4.3687 C.3     1  UNL1        0.0000
     12 H           7.0279    3.8185    4.9540 H       1  UNL1        0.0000
     13 H           7.5615    3.3643    3.3514 H       1  UNL1        0.0000
     14 H           8.4320    2.7822    4.7608 H       1  UNL1        0.0000
     15 C           7.1379    0.0988    3.3885 C.3     1  UNL1        0.0000
     16 H           7.0892    0.3171    2.3273 H       1  UNL1        0.0000
     17 H           6.6564   -0.8615    3.5450 H       1  UNL1        0.0000
     18 H           8.1851   -0.0033    3.6587 H       1  UNL1        0.0000
     19 C           6.2226    0.8729    6.2367 C.3     1  UNL1        0.0000
     20 H           5.7434    1.6110    6.8719 H       1  UNL1        0.0000
     21 H           7.2190    0.6968    6.6327 H       1  UNL1        0.0000
     22 H           5.6578   -0.0543    6.3294 H       1  UNL1        0.0000
@<TRIPOS>BOND
     1     7     6    1
     2     9     8    1
     3     6     8    2
     4     6     4    1
     5    16    15    1
     6     8    10    1
     7    13    11    1
     8    15    17    1
     9    15    18    1
    10    15     1    1
    11     4     5    1
    12     4     2    2
    13    10     1    1
    14    10     2    1
    15    11     1    1
    16    11    14    1
    17    11    12    1
    18     1    19    1
    19     2     3    1
    20    19    22    1
    21    19    21    1
    22    19    20    1
