@<TRIPOS>MOLECULE
2
 16 15 0 0 0
SMALL
GASTEIGER

@<TRIPOS>ATOM
      1 SI         -2.7213    8.8907   11.1488 Si      1  UNL1        0.0000
      2 C          -1.2421    7.7998   11.4840 C.3     1  UNL1        0.0000
      3 H          -0.6868    8.1990   12.3400 H       1  UNL1        0.0000
      4 H          -0.5556    7.8309   10.6283 H       1  UNL1        0.0000
      5 C          -3.6174    9.4086   12.7651 C.3     1  UNL1        0.0000
      6 H          -3.8691    8.5268   13.3438 H       1  UNL1        0.0000
      7 H          -4.5335    9.9552   12.5636 H       1  UNL1        0.0000
      8 H          -2.9883   10.0473   13.3774 H       1  UNL1        0.0000
      9 C          -3.9898    7.9430   10.0474 C.3     1  UNL1        0.0000
     10 H          -3.7829    8.0877    8.9906 H       1  UNL1        0.0000
     11 H          -5.0080    8.2815   10.2210 H       1  UNL1        0.0000
     12 H          -3.9293    6.8723   10.2641 H       1  UNL1        0.0000
     13 C          -2.4056   10.5432   10.2019 C.3     1  UNL1        0.0000
     14 H          -1.7771   11.2133   10.7802 H       1  UNL1        0.0000
     15 H          -3.3274   11.0720    9.9793 H       1  UNL1        0.0000
     16 H          -1.8997   10.3588    9.2591 H       1  UNL1        0.0000
@<TRIPOS>BOND
     1    10     9    1
     2    16    13    1
     3    15    13    1
     4     9    11    1
     5     9    12    1
     6     9     1    1
     7    13    14    1
     8    13     1    1
     9     4     2    1
    10     1     2    1
    11     1     5    1
    12     2     3    1
    13     7     5    1
    14     5     6    1
    15     5     8    1
