@<TRIPOS>MOLECULE
2
 16 15 0 0 0
SMALL
GASTEIGER

@<TRIPOS>ATOM
      1 SI          0.0185    4.7941    9.1565 Si      1  UNL1        0.0000
      2 C          -1.7231    5.4088    9.4385 C.3     1  UNL1        0.0000
      3 H          -2.4276    4.7373    8.9353 H       1  UNL1        0.0000
      4 H          -1.8495    6.3947    8.9732 H       1  UNL1        0.0000
      5 C           0.8297    5.1882    7.4496 C.3     1  UNL1        0.0000
      6 H           0.2998    4.6956    6.6403 H       1  UNL1        0.0000
      7 H           1.8661    4.8679    7.4030 H       1  UNL1        0.0000
      8 H           0.8087    6.2548    7.2476 H       1  UNL1        0.0000
      9 C           0.1492    2.8881    9.3402 C.3     1  UNL1        0.0000
     10 H          -0.2497    2.5840   10.3016 H       1  UNL1        0.0000
     11 H           1.1768    2.5440    9.2748 H       1  UNL1        0.0000
     12 H          -0.4123    2.3779    8.5638 H       1  UNL1        0.0000
     13 C           1.2060    5.5949   10.4484 C.3     1  UNL1        0.0000
     14 H           0.6576    5.7835   11.3762 H       1  UNL1        0.0000
     15 H           1.6024    6.5410   10.0900 H       1  UNL1        0.0000
     16 H           2.0577    4.9553   10.6652 H       1  UNL1        0.0000
@<TRIPOS>BOND
     1     6     5    1
     2     8     5    1
     3     7     5    1
     4     5     1    1
     5    12     9    1
     6     3     2    1
     7     4     2    1
     8     1     9    1
     9     1     2    1
    10     1    13    1
    11    11     9    1
    12     9    10    1
    13    15    13    1
    14    13    16    1
    15    13    14    1
