@<TRIPOS>MOLECULE
2
 16 15 0 0 0
SMALL
GASTEIGER

@<TRIPOS>ATOM
      1 SI          6.9045    3.2968    5.9259 Si      1  UNL1        0.0000
      2 C           5.8848    2.6115    4.4638 C.3     1  UNL1        0.0000
      3 C           6.3166    2.4902    7.5517 C.3     1  UNL1        0.0000
      4 C           6.6891    5.1978    6.0958 C.3     1  UNL1        0.0000
      5 C           8.7766    2.9615    5.6943 C.3     1  UNL1        0.0000
      6 H           5.6088    1.5873    4.7424 H       1  UNL1        0.0000
      7 H           6.5130    2.5370    3.5629 H       1  UNL1        0.0000
      8 H           5.2523    2.6508    7.6937 H       1  UNL1        0.0000
      9 H           6.4924    1.4192    7.5527 H       1  UNL1        0.0000
     10 H           6.8328    2.9090    8.4097 H       1  UNL1        0.0000
     11 H           7.1870    5.5563    6.9923 H       1  UNL1        0.0000
     12 H           7.1157    5.7439    5.2581 H       1  UNL1        0.0000
     13 H           5.6317    5.4549    6.1860 H       1  UNL1        0.0000
     14 H           8.9806    1.8975    5.6366 H       1  UNL1        0.0000
     15 H           9.1614    3.4175    4.7872 H       1  UNL1        0.0000
     16 H           9.3473    3.3591    6.5266 H       1  UNL1        0.0000
@<TRIPOS>BOND
     1     7     2    1
     2     2     6    1
     3     2     1    1
     4    15     5    1
     5    12     4    1
     6    14     5    1
     7     5     1    1
     8     5    16    1
     9     1     4    1
    10     1     3    1
    11     4    13    1
    12     4    11    1
    13     3     9    1
    14     3     8    1
    15     3    10    1
