@<TRIPOS>MOLECULE
2
 16 15 0 0 0
SMALL
GASTEIGER

@<TRIPOS>ATOM
      1 SI          1.0294    2.5237    3.8940 Si      1  UNL1        0.0000
      2 C           2.8585    2.3082    3.4018 C.3     1  UNL1        0.0000
      3 C           0.6891    1.5680    5.5099 C.3     1  UNL1        0.0000
      4 C           0.5880    4.3654    4.1903 C.3     1  UNL1        0.0000
      5 C          -0.1245    1.8688    2.5119 C.3     1  UNL1        0.0000
      6 H           2.9501    2.1710    2.3150 H       1  UNL1        0.0000
      7 H           3.1942    1.3720    3.8671 H       1  UNL1        0.0000
      8 H          -0.3409    1.6863    5.8314 H       1  UNL1        0.0000
      9 H           0.8784    0.5051    5.3969 H       1  UNL1        0.0000
     10 H           1.3295    1.9367    6.3050 H       1  UNL1        0.0000
     11 H           1.3198    4.8267    4.8521 H       1  UNL1        0.0000
     12 H           0.5399    4.9400    3.2698 H       1  UNL1        0.0000
     13 H          -0.3826    4.4490    4.6700 H       1  UNL1        0.0000
     14 H          -1.1663    1.9947    2.7856 H       1  UNL1        0.0000
     15 H           0.0310    2.3903    1.5725 H       1  UNL1        0.0000
     16 H           0.0402    0.8121    2.3298 H       1  UNL1        0.0000
@<TRIPOS>BOND
     1    15     5    1
     2     6     2    1
     3    16     5    1
     4     5    14    1
     5     5     1    1
     6    12     4    1
     7     2     7    1
     8     2     1    1
     9     1     4    1
    10     1     3    1
    11     4    13    1
    12     4    11    1
    13     9     3    1
    14     3     8    1
    15     3    10    1
