@<TRIPOS>MOLECULE
3
 65 67 0 0 0
SMALL
GASTEIGER

@<TRIPOS>ATOM
      1 N          -4.9961   29.0014    2.7391 N.pl3   1  UNL1       -0.2762
      2 N          -5.1640   26.8833    2.4195 N.pl3   1  UNL1       -0.2762
      3 C          -5.4286   27.8546    3.3365 C.3     1  UNL1        0.1959
      4 C          -4.4544   28.7387    1.5054 C.2     1  UNL1        0.0131
      5 H          -4.0349   29.5103    0.8935 H       1  UNL1        0.0797
      6 C          -4.5651   27.4111    1.3033 C.2     1  UNL1        0.0131
      7 H          -4.2782   26.8009    0.4716 H       1  UNL1        0.0797
      8 C          -5.1198   30.3423    3.2031 C.ar    1  UNL1        0.0424
      9 C          -4.1124   30.8848    4.0064 C.ar    1  UNL1       -0.0231
     10 C          -4.2296   32.2135    4.3909 C.ar    1  UNL1       -0.0565
     11 H          -3.4689   32.6621    5.0088 H       1  UNL1        0.0621
     12 C          -5.3066   32.9781    3.9854 C.ar    1  UNL1       -0.0611
     13 H          -5.3833   34.0093    4.2976 H       1  UNL1        0.0618
     14 C          -6.2767   32.4349    3.1660 C.ar    1  UNL1       -0.0565
     15 H          -7.0982   33.0521    2.8377 H       1  UNL1        0.0621
     16 C          -6.2002   31.1108    2.7537 C.ar    1  UNL1       -0.0231
     17 C          -5.5172   25.5013    2.4468 C.ar    1  UNL1        0.0424
     18 C          -4.6201   24.5686    2.9760 C.ar    1  UNL1       -0.0231
     19 C          -4.9528   23.2245    2.8878 C.ar    1  UNL1       -0.0565
     20 H          -4.2866   22.4798    3.2900 H       1  UNL1        0.0621
     21 C          -6.1309   22.8214    2.2882 C.ar    1  UNL1       -0.0611
     22 H          -6.3711   21.7702    2.2272 H       1  UNL1        0.0618
     23 C          -7.0017   23.7561    1.7643 C.ar    1  UNL1       -0.0565
     24 H          -7.9139   23.4259    1.2926 H       1  UNL1        0.0621
     25 C          -6.7118   25.1122    1.8332 C.ar    1  UNL1       -0.0231
     26 C          -2.9019   30.0645    4.3870 C.3     1  UNL1       -0.0197
     27 H          -3.1750   29.0040    4.3426 H       1  UNL1        0.0344
     28 C          -1.7737   30.3325    3.3850 C.3     1  UNL1       -0.0586
     29 H          -2.0720   30.0554    2.3767 H       1  UNL1        0.0235
     30 H          -0.8939   29.7527    3.6530 H       1  UNL1        0.0235
     31 H          -1.5074   31.3876    3.3873 H       1  UNL1        0.0235
     32 C          -2.4239   30.3516    5.8088 C.3     1  UNL1       -0.0586
     33 H          -3.2489   30.2392    6.5069 H       1  UNL1        0.0235
     34 H          -2.0107   31.3530    5.8996 H       1  UNL1        0.0235
     35 H          -1.6462   29.6427    6.0793 H       1  UNL1        0.0235
     36 C          -7.2224   30.5527    1.7867 C.3     1  UNL1       -0.0197
     37 H          -7.2011   29.4597    1.8487 H       1  UNL1        0.0344
     38 C          -8.6512   31.0155    2.0802 C.3     1  UNL1       -0.0586
     39 H          -8.9064   30.8793    3.1273 H       1  UNL1        0.0235
     40 H          -9.3528   30.4397    1.4790 H       1  UNL1        0.0235
     41 H          -8.7845   32.0645    1.8275 H       1  UNL1        0.0235
     42 C          -6.8509   30.9618    0.3565 C.3     1  UNL1       -0.0586
     43 H          -5.8782   30.5700    0.0728 H       1  UNL1        0.0235
     44 H          -6.8218   32.0461    0.2726 H       1  UNL1        0.0235
     45 H          -7.5902   30.5802   -0.3446 H       1  UNL1        0.0235
     46 C          -3.3233   25.0266    3.5992 C.3     1  UNL1       -0.0197
     47 H          -3.5094   26.0070    4.0568 H       1  UNL1        0.0344
     48 C          -2.8292   24.0829    4.6933 C.3     1  UNL1       -0.0586
     49 H          -3.6178   23.8905    5.4139 H       1  UNL1        0.0235
     50 H          -1.9945   24.5413    5.2164 H       1  UNL1        0.0235
     51 H          -2.4823   23.1403    4.2763 H       1  UNL1        0.0235
     52 C          -2.2411   25.1688    2.5218 C.3     1  UNL1       -0.0586
     53 H          -2.5008   25.9310    1.7919 H       1  UNL1        0.0235
     54 H          -2.1027   24.2231    2.0011 H       1  UNL1        0.0235
     55 H          -1.2970   25.4485    2.9835 H       1  UNL1        0.0235
     56 C          -7.6528   26.1270    1.2225 C.3     1  UNL1       -0.0197
     57 H          -7.4154   27.1127    1.6363 H       1  UNL1        0.0344
     58 C          -9.1179   25.8280    1.5443 C.3     1  UNL1       -0.0586
     59 H          -9.2448   25.6373    2.6064 H       1  UNL1        0.0235
     60 H          -9.4744   24.9611    0.9941 H       1  UNL1        0.0235
     61 H          -9.7406   26.6769    1.2666 H       1  UNL1        0.0235
     62 C          -7.4543   26.1809   -0.2956 C.3     1  UNL1       -0.0586
     63 H          -6.4401   26.4812   -0.5470 H       1  UNL1        0.0235
     64 H          -8.1434   26.8967   -0.7395 H       1  UNL1        0.0235
     65 H          -7.6416   25.2034   -0.7344 H       1  UNL1        0.0235
@<TRIPOS>BOND
     1    64    62    1
     2    65    62    1
     3    63    62    1
     4    45    42    1
     5    62    56    1
     6    43    42    1
     7    44    42    1
     8    42    36    1
     9     7     6    1
    10     5     4    1
    11    60    58    1
    12    56    58    1
    13    56    57    1
    14    56    25    1
    15    61    58    1
    16    24    23    1
    17     6     4    2
    18     6     2    1
    19    40    38    1
    20     4     1    1
    21    58    59    1
    22    23    25   ar
    23    23    21   ar
    24    36    37    1
    25    36    38    1
    26    36    16    1
    27    53    52    1
    28    41    38    1
    29    25    17   ar
    30    54    52    1
    31    38    39    1
    32    22    21    1
    33    21    19   ar
    34    29    28    1
    35     2    17    1
    36     2     3    1
    37    17    18   ar
    38    52    55    1
    39    52    46    1
    40     1     8    1
    41     1     3    1
    42    16    14   ar
    43    16     8   ar
    44    15    14    1
    45    19    18   ar
    46    19    20    1
    47    18    46    1
    48    14    12   ar
    49     8     9   ar
    50    28    31    1
    51    28    30    1
    52    28    26    1
    53    46    47    1
    54    46    48    1
    55    12    13    1
    56    12    10   ar
    57     9    26    1
    58     9    10   ar
    59    51    48    1
    60    27    26    1
    61    26    32    1
    62    10    11    1
    63    48    50    1
    64    48    49    1
    65    32    34    1
    66    32    35    1
    67    32    33    1
