@<TRIPOS>MOLECULE
3
 65 67 0 0 0
SMALL
GASTEIGER

@<TRIPOS>ATOM
      1 N           1.3229    9.6525    5.6093 N.pl3   1  UNL1       -0.2762
      2 N           1.2712    9.4218    3.4713 N.pl3   1  UNL1       -0.2762
      3 C           2.0884    9.8105    4.4935 C.3     1  UNL1        0.1959
      4 C           0.0734    9.1844    5.2859 C.2     1  UNL1        0.0131
      5 H          -0.6746    9.0020    6.0304 H       1  UNL1        0.0797
      6 C           0.0422    9.0340    3.9476 C.2     1  UNL1        0.0131
      7 H          -0.7318    8.6785    3.2995 H       1  UNL1        0.0797
      8 C           1.6811    9.8539    6.9747 C.ar    1  UNL1        0.0424
      9 C           1.3250   11.0546    7.5938 C.ar    1  UNL1       -0.0231
     10 C           1.5722   11.1913    8.9530 C.ar    1  UNL1       -0.0565
     11 H           1.3021   12.1053    9.4583 H       1  UNL1        0.0621
     12 C           2.1617   10.1674    9.6677 C.ar    1  UNL1       -0.0611
     13 H           2.3484   10.2879   10.7245 H       1  UNL1        0.0618
     14 C           2.5205    8.9915    9.0361 C.ar    1  UNL1       -0.0565
     15 H           2.9900    8.2104    9.6099 H       1  UNL1        0.0621
     16 C           2.2859    8.8077    7.6810 C.ar    1  UNL1       -0.0231
     17 C           0.6890   12.1792    6.8078 C.3     1  UNL1       -0.0197
     18 H           0.9116   12.0213    5.7466 H       1  UNL1        0.0344
     19 C          -0.8310   12.1702    6.9947 C.3     1  UNL1       -0.0586
     20 H          -1.2802   13.0045    6.4596 H       1  UNL1        0.0235
     21 H          -1.2665   11.2479    6.6183 H       1  UNL1        0.0235
     22 H          -1.0803   12.2622    8.0497 H       1  UNL1        0.0235
     23 C           1.2549   13.5439    7.2060 C.3     1  UNL1       -0.0586
     24 H           0.9842   14.2914    6.4625 H       1  UNL1        0.0235
     25 H           0.8607   13.8699    8.1652 H       1  UNL1        0.0235
     26 H           2.3386   13.4985    7.2777 H       1  UNL1        0.0235
     27 C           2.6609    7.5248    6.9766 C.3     1  UNL1       -0.0197
     28 H           2.9996    7.7989    5.9692 H       1  UNL1        0.0344
     29 C           1.4504    6.5881    6.8744 C.3     1  UNL1       -0.0586
     30 H           1.7533    5.6475    6.4211 H       1  UNL1        0.0235
     31 H           1.0531    6.3801    7.8662 H       1  UNL1        0.0235
     32 H           0.6580    7.0164    6.2676 H       1  UNL1        0.0235
     33 C           3.8046    6.7818    7.6640 C.3     1  UNL1       -0.0586
     34 H           4.1704    5.9981    7.0061 H       1  UNL1        0.0235
     35 H           4.6273    7.4573    7.8747 H       1  UNL1        0.0235
     36 H           3.4716    6.3155    8.5886 H       1  UNL1        0.0235
     37 C           1.5991    9.2841    2.0934 C.ar    1  UNL1        0.0424
     38 C           1.1215   10.2245    1.1752 C.ar    1  UNL1       -0.0231
     39 C           1.4286   10.0441   -0.1679 C.ar    1  UNL1       -0.0565
     40 H           1.0760   10.7557   -0.8982 H       1  UNL1        0.0621
     41 C           2.1747    8.9591   -0.5833 C.ar    1  UNL1       -0.0611
     42 H           2.4105    8.8383   -1.6304 H       1  UNL1        0.0618
     43 C           2.5979    8.0144    0.3328 C.ar    1  UNL1       -0.0565
     44 H           3.1496    7.1554   -0.0132 H       1  UNL1        0.0621
     45 C           2.3137    8.1512    1.6840 C.ar    1  UNL1       -0.0231
     46 C           0.2284   11.3698    1.6011 C.3     1  UNL1       -0.0197
     47 H           0.3171   11.4993    2.6850 H       1  UNL1        0.0344
     48 C           0.5893   12.6964    0.9285 C.3     1  UNL1       -0.0586
     49 H           0.0363   13.5082    1.3982 H       1  UNL1        0.0235
     50 H           1.6510   12.9098    1.0151 H       1  UNL1        0.0235
     51 H           0.3280   12.6853   -0.1267 H       1  UNL1        0.0235
     52 C          -1.2293   11.0253    1.2741 C.3     1  UNL1       -0.0586
     53 H          -1.8844   11.8360    1.5857 H       1  UNL1        0.0235
     54 H          -1.3487   10.8764    0.2032 H       1  UNL1        0.0235
     55 H          -1.5450   10.1168    1.7799 H       1  UNL1        0.0235
     56 C           2.6852    7.0660    2.6687 C.3     1  UNL1       -0.0197
     57 H           2.7339    7.5022    3.6715 H       1  UNL1        0.0344
     58 C           4.0544    6.4503    2.3884 C.3     1  UNL1       -0.0586
     59 H           4.3318    5.7983    3.2123 H       1  UNL1        0.0235
     60 H           4.0534    5.8605    1.4753 H       1  UNL1        0.0235
     61 H           4.8032    7.2336    2.3127 H       1  UNL1        0.0235
     62 C           1.5971    5.9867    2.6495 C.3     1  UNL1       -0.0586
     63 H           1.8466    5.1959    3.3524 H       1  UNL1        0.0235
     64 H           0.6314    6.4022    2.9292 H       1  UNL1        0.0235
     65 H           1.5096    5.5527    1.6554 H       1  UNL1        0.0235
@<TRIPOS>BOND
     1    42    41    1
     2    40    39    1
     3    41    39   ar
     4    41    43   ar
     5    39    38   ar
     6    51    48    1
     7    44    43    1
     8    54    52    1
     9    43    45   ar
    10    48    50    1
    11    48    49    1
    12    48    46    1
    13    38    46    1
    14    38    37   ar
    15    52    53    1
    16    52    46    1
    17    52    55    1
    18    60    58    1
    19    46    47    1
    20    65    62    1
    21    45    37   ar
    22    45    56    1
    23    37     2    1
    24    61    58    1
    25    58    56    1
    26    58    59    1
    27    62    56    1
    28    62    64    1
    29    62    63    1
    30    56    57    1
    31     7     6    1
    32     2     6    1
    33     2     3    1
    34     6     4    2
    35     3     1    1
    36     4     1    1
    37     4     5    1
    38     1     8    1
    39    18    17    1
    40    28    27    1
    41    32    29    1
    42    30    29    1
    43    20    19    1
    44    24    23    1
    45    21    19    1
    46    17    19    1
    47    17    23    1
    48    17     9    1
    49    29    27    1
    50    29    31    1
    51     8     9   ar
    52     8    16   ar
    53    27    33    1
    54    27    16    1
    55    19    22    1
    56    34    33    1
    57    23    26    1
    58    23    25    1
    59     9    10   ar
    60    33    35    1
    61    33    36    1
    62    16    14   ar
    63    10    11    1
    64    10    12   ar
    65    14    15    1
    66    14    12   ar
    67    12    13    1
