@<TRIPOS>MOLECULE
3
 65 67 0 0 0
SMALL
GASTEIGER

@<TRIPOS>ATOM
      1 N           6.2863    6.7221   17.2233 N.pl3   1  UNL1       -0.2762
      2 N           6.4053    6.4519   15.0939 N.pl3   1  UNL1       -0.2762
      3 C           5.5453    6.3345   16.1444 C.3     1  UNL1        0.1959
      4 C           7.5581    7.0755   16.8445 C.2     1  UNL1        0.0131
      5 H           8.2836    7.4264   17.5487 H       1  UNL1        0.0797
      6 C           7.6341    6.9009   15.5109 C.2     1  UNL1        0.0131
      7 H           8.4433    7.0547   14.8265 H       1  UNL1        0.0797
      8 C           5.8570    6.8664   18.5722 C.ar    1  UNL1        0.0424
      9 C           5.1725    8.0316   18.9381 C.ar    1  UNL1       -0.0231
     10 C           4.7912    8.1718   20.2650 C.ar    1  UNL1       -0.0565
     11 H           4.2600    9.0560   20.5781 H       1  UNL1        0.0621
     12 C           5.0897    7.1967   21.1978 C.ar    1  UNL1       -0.0611
     13 H           4.7789    7.3203   22.2249 H       1  UNL1        0.0618
     14 C           5.8056    6.0753   20.8277 C.ar    1  UNL1       -0.0565
     15 H           6.0591    5.3383   21.5738 H       1  UNL1        0.0621
     16 C           6.2079    5.8910   19.5108 C.ar    1  UNL1       -0.0231
     17 C           6.1729    6.2075   13.7093 C.ar    1  UNL1        0.0424
     18 C           5.6704    7.2409   12.9105 C.ar    1  UNL1       -0.0231
     19 C           5.5827    7.0191   11.5433 C.ar    1  UNL1       -0.0565
     20 H           5.1992    7.7923   10.8986 H       1  UNL1        0.0621
     21 C           5.9791    5.8152   10.9910 C.ar    1  UNL1       -0.0611
     22 H           5.9090    5.6646    9.9237 H       1  UNL1        0.0618
     23 C           6.4547    4.8002   11.7978 C.ar    1  UNL1       -0.0565
     24 H           6.7508    3.8630   11.3536 H       1  UNL1        0.0621
     25 C           6.5573    4.9769   13.1712 C.ar    1  UNL1       -0.0231
     26 C           4.9301    9.1394   17.9383 C.3     1  UNL1       -0.0197
     27 H           4.9578    8.7150   16.9293 H       1  UNL1        0.0344
     28 C           3.5619    9.7979   18.1032 C.3     1  UNL1       -0.0586
     29 H           2.7830    9.0406   18.0895 H       1  UNL1        0.0235
     30 H           3.4971   10.3681   19.0263 H       1  UNL1        0.0235
     31 H           3.3852   10.4765   17.2730 H       1  UNL1        0.0235
     32 C           6.0469   10.1809   18.0694 C.3     1  UNL1       -0.0586
     33 H           7.0206    9.7341   17.8805 H       1  UNL1        0.0235
     34 H           5.8924   10.9830   17.3521 H       1  UNL1        0.0235
     35 H           6.0530   10.6072   19.0706 H       1  UNL1        0.0235
     36 C           7.0709    4.7055   19.1358 C.3     1  UNL1       -0.0197
     37 H           7.0458    4.5839   18.0475 H       1  UNL1        0.0344
     38 C           8.5187    4.9814   19.5581 C.3     1  UNL1       -0.0586
     39 H           9.1556    4.1432   19.2836 H       1  UNL1        0.0235
     40 H           8.9066    5.8768   19.0800 H       1  UNL1        0.0235
     41 H           8.5749    5.1200   20.6356 H       1  UNL1        0.0235
     42 C           6.6071    3.3938   19.7730 C.3     1  UNL1       -0.0586
     43 H           7.1599    2.5612   19.3411 H       1  UNL1        0.0235
     44 H           6.7893    3.3914   20.8446 H       1  UNL1        0.0235
     45 H           5.5472    3.2244   19.6058 H       1  UNL1        0.0235
     46 C           5.2390    8.5480   13.5335 C.3     1  UNL1       -0.0197
     47 H           4.8339    8.3169   14.5278 H       1  UNL1        0.0344
     48 C           4.1376    9.2469   12.7379 C.3     1  UNL1       -0.0586
     49 H           3.7268   10.0603   13.3301 H       1  UNL1        0.0235
     50 H           4.5245    9.6683   11.8127 H       1  UNL1        0.0235
     51 H           3.3312    8.5560   12.5105 H       1  UNL1        0.0235
     52 C           6.4366    9.4944   13.6804 C.3     1  UNL1       -0.0586
     53 H           6.1040   10.4464   14.0868 H       1  UNL1        0.0235
     54 H           7.1909    9.0855   14.3473 H       1  UNL1        0.0235
     55 H           6.8944    9.6749   12.7093 H       1  UNL1        0.0235
     56 C           7.0731    3.8659   14.0578 C.3     1  UNL1       -0.0197
     57 H           6.7504    4.0718   15.0845 H       1  UNL1        0.0344
     58 C           8.6037    3.8234   14.0269 C.3     1  UNL1       -0.0586
     59 H           8.9688    3.0006   14.6383 H       1  UNL1        0.0235
     60 H           8.9553    3.6785   13.0076 H       1  UNL1        0.0235
     61 H           9.0286    4.7484   14.4088 H       1  UNL1        0.0235
     62 C           6.5039    2.5043   13.6545 C.3     1  UNL1       -0.0586
     63 H           6.6845    1.7762   14.4433 H       1  UNL1        0.0235
     64 H           5.4326    2.5763   13.4850 H       1  UNL1        0.0235
     65 H           6.9716    2.1340   12.7455 H       1  UNL1        0.0235
@<TRIPOS>BOND
     1    22    21    1
     2    20    19    1
     3    21    19   ar
     4    21    23   ar
     5    24    23    1
     6    19    18   ar
     7    23    25   ar
     8    50    48    1
     9    51    48    1
    10    55    52    1
    11    48    49    1
    12    48    46    1
    13    65    62    1
    14    18    46    1
    15    18    17   ar
    16    60    58    1
    17    25    17   ar
    18    25    56    1
    19    64    62    1
    20    46    52    1
    21    46    47    1
    22    62    56    1
    23    62    63    1
    24    52    53    1
    25    52    54    1
    26    17     2    1
    27    58    56    1
    28    58    61    1
    29    58    59    1
    30    56    57    1
    31     7     6    1
    32     2     6    1
    33     2     3    1
    34     6     4    2
    35     3     1    1
    36     4     1    1
    37     4     5    1
    38    27    26    1
    39     1     8    1
    40    31    28    1
    41    34    32    1
    42    33    32    1
    43    26    32    1
    44    26    28    1
    45    26     9    1
    46    37    36    1
    47    32    35    1
    48    29    28    1
    49    28    30    1
    50     8     9   ar
    51     8    16   ar
    52     9    10   ar
    53    40    38    1
    54    36    16    1
    55    36    38    1
    56    36    42    1
    57    39    38    1
    58    43    42    1
    59    16    14   ar
    60    38    41    1
    61    45    42    1
    62    42    44    1
    63    10    11    1
    64    10    12   ar
    65    14    12   ar
    66    14    15    1
    67    12    13    1
