@<TRIPOS>MOLECULE
3
 65 67 0 0 0
SMALL
GASTEIGER

@<TRIPOS>ATOM
      1 N           4.9174    5.7831   12.1297 N.pl3   1  UNL1       -0.2762
      2 N           4.9851    7.7729   11.3181 N.pl3   1  UNL1       -0.2762
      3 C           4.1403    6.7195   11.5117 C.3     1  UNL1        0.1959
      4 C           6.1904    6.2566   12.3332 C.2     1  UNL1        0.0131
      5 H           6.9397    5.6754   12.8299 H       1  UNL1        0.0797
      6 C           6.2342    7.5008   11.8188 C.2     1  UNL1        0.0131
      7 H           7.0358    8.2084   11.7608 H       1  UNL1        0.0797
      8 C           4.5758    4.4495   12.4937 C.ar    1  UNL1        0.0424
      9 C           4.9390    3.4040   11.6362 C.ar    1  UNL1       -0.0231
     10 C           4.6496    2.1038   12.0297 C.ar    1  UNL1       -0.0565
     11 H           4.9163    1.2778   11.3891 H       1  UNL1        0.0621
     12 C           4.0318    1.8512   13.2388 C.ar    1  UNL1       -0.0611
     13 H           3.8114    0.8338   13.5272 H       1  UNL1        0.0618
     14 C           3.7158    2.8933   14.0892 C.ar    1  UNL1       -0.0565
     15 H           3.2611    2.6751   15.0418 H       1  UNL1        0.0621
     16 C           3.9851    4.2090   13.7380 C.ar    1  UNL1       -0.0231
     17 C           5.6951    3.6569   10.3493 C.3     1  UNL1       -0.0197
     18 H           5.5524    4.7031   10.0594 H       1  UNL1        0.0344
     19 C           5.2276    2.7749    9.1891 C.3     1  UNL1       -0.0586
     20 H           4.1469    2.7983    9.0821 H       1  UNL1        0.0235
     21 H           5.6718    3.1272    8.2596 H       1  UNL1        0.0235
     22 H           5.5363    1.7422    9.3312 H       1  UNL1        0.0235
     23 C           7.1921    3.4205   10.5814 C.3     1  UNL1       -0.0586
     24 H           7.7444    3.5900    9.6595 H       1  UNL1        0.0235
     25 H           7.5852    4.0890   11.3423 H       1  UNL1        0.0235
     26 H           7.3641    2.3959   10.9042 H       1  UNL1        0.0235
     27 C           3.7202    5.3424   14.7013 C.3     1  UNL1       -0.0197
     28 H           3.6261    6.2707   14.1271 H       1  UNL1        0.0344
     29 C           2.4202    5.1580   15.4811 C.3     1  UNL1       -0.0586
     30 H           2.2098    6.0581   16.0523 H       1  UNL1        0.0235
     31 H           1.5973    4.9909   14.7918 H       1  UNL1        0.0235
     32 H           2.4823    4.3253   16.1772 H       1  UNL1        0.0235
     33 C           4.9048    5.4695   15.6654 C.3     1  UNL1       -0.0586
     34 H           4.7270    6.2810   16.3669 H       1  UNL1        0.0235
     35 H           5.0368    4.5475   16.2282 H       1  UNL1        0.0235
     36 H           5.8263    5.6783   15.1268 H       1  UNL1        0.0235
     37 C           4.7447    8.9883   10.6125 C.ar    1  UNL1        0.0424
     38 C           5.1176    9.0579    9.2667 C.ar    1  UNL1       -0.0231
     39 C           4.9619   10.2684    8.6042 C.ar    1  UNL1       -0.0565
     40 H           5.2437   10.3516    7.5661 H       1  UNL1        0.0621
     41 C           4.4524   11.3708    9.2606 C.ar    1  UNL1       -0.0611
     42 H           4.3341   12.3045    8.7305 H       1  UNL1        0.0618
     43 C           4.0962   11.2863   10.5936 C.ar    1  UNL1       -0.0565
     44 H           3.7006   12.1579   11.0872 H       1  UNL1        0.0621
     45 C           4.2395   10.0991   11.2971 C.ar    1  UNL1       -0.0231
     46 C           5.7066    7.8643    8.5478 C.3     1  UNL1       -0.0197
     47 H           5.4760    6.9630    9.1252 H       1  UNL1        0.0344
     48 C           5.1191    7.6820    7.1475 C.3     1  UNL1       -0.0586
     49 H           4.0342    7.7301    7.1799 H       1  UNL1        0.0235
     50 H           5.4777    8.4480    6.4648 H       1  UNL1        0.0235
     51 H           5.4116    6.7138    6.7445 H       1  UNL1        0.0235
     52 C           7.2294    8.0049    8.4588 C.3     1  UNL1       -0.0586
     53 H           7.6761    8.0518    9.4489 H       1  UNL1        0.0235
     54 H           7.6552    7.1540    7.9307 H       1  UNL1        0.0235
     55 H           7.4928    8.9127    7.9205 H       1  UNL1        0.0235
     56 C           3.8774    9.9890   12.7586 C.3     1  UNL1       -0.0197
     57 H           3.4683    8.9822   12.9139 H       1  UNL1        0.0344
     58 C           2.8152   10.9994   13.1855 C.3     1  UNL1       -0.0586
     59 H           2.4721   10.7591   14.1877 H       1  UNL1        0.0235
     60 H           3.2164   12.0104   13.2041 H       1  UNL1        0.0235
     61 H           1.9610   10.9605   12.5165 H       1  UNL1        0.0235
     62 C           5.1252   10.1722   13.6316 C.3     1  UNL1       -0.0586
     63 H           4.8443   10.1478   14.6818 H       1  UNL1        0.0235
     64 H           5.8553    9.3867   13.4582 H       1  UNL1        0.0235
     65 H           5.5928   11.1328   13.4228 H       1  UNL1        0.0235
@<TRIPOS>BOND
     1    50    48    1
     2    51    48    1
     3    48    49    1
     4    48    46    1
     5    40    39    1
     6    55    52    1
     7    54    52    1
     8    21    19    1
     9    52    46    1
    10    52    53    1
    11    46    47    1
    12    46    38    1
    13    39    41   ar
    14    39    38   ar
    15    42    41    1
    16    20    19    1
    17    19    22    1
    18    19    17    1
    19    41    43   ar
    20    38    37   ar
    21    24    23    1
    22    18    17    1
    23    17    23    1
    24    17     9    1
    25    23    26    1
    26    23    25    1
    27    43    44    1
    28    43    45   ar
    29    37    45   ar
    30    37     2    1
    31    45    56    1
    32     2     3    1
    33     2     6    1
    34    11    10    1
    35     3     1    1
    36     9    10   ar
    37     9     8   ar
    38     7     6    1
    39     6     4    2
    40    10    12   ar
    41     1     4    1
    42     1     8    1
    43     4     5    1
    44     8    16   ar
    45    61    58    1
    46    56    57    1
    47    56    58    1
    48    56    62    1
    49    58    60    1
    50    58    59    1
    51    12    13    1
    52    12    14   ar
    53    65    62    1
    54    64    62    1
    55    62    63    1
    56    16    14   ar
    57    16    27    1
    58    14    15    1
    59    28    27    1
    60    27    29    1
    61    27    33    1
    62    31    29    1
    63    36    33    1
    64    29    30    1
    65    29    32    1
    66    33    35    1
    67    33    34    1
