@<TRIPOS>MOLECULE
2
 16 15 0 0 0
SMALL
GASTEIGER

@<TRIPOS>ATOM
      1 SI         15.5827    2.9374   12.6064 Si      1  UNL1        0.0000
      2 C          14.9154    4.2321   13.7962 C.3     1  UNL1        0.0000
      3 H          14.1517    3.7418   14.4164 H       1  UNL1        0.0000
      4 H          14.3827    4.9894   13.2048 H       1  UNL1        0.0000
      5 C          16.7993    3.6673   11.3212 C.3     1  UNL1        0.0000
      6 H          16.2829    4.2810   10.5901 H       1  UNL1        0.0000
      7 H          17.3156    2.8813   10.7777 H       1  UNL1        0.0000
      8 H          17.5528    4.2828   11.8025 H       1  UNL1        0.0000
      9 C          16.4903    1.5239   13.5314 C.3     1  UNL1        0.0000
     10 H          17.4517    1.8562   13.9097 H       1  UNL1        0.0000
     11 H          16.6680    0.6758   12.8767 H       1  UNL1        0.0000
     12 H          15.9077    1.1659   14.3752 H       1  UNL1        0.0000
     13 C          14.2063    2.0681   11.5747 C.3     1  UNL1        0.0000
     14 H          13.5194    1.5242   12.2162 H       1  UNL1        0.0000
     15 H          14.6188    1.3588   10.8635 H       1  UNL1        0.0000
     16 H          13.6218    2.7906   11.0128 H       1  UNL1        0.0000
@<TRIPOS>BOND
     1     6     5    1
     2     7     5    1
     3    15    13    1
     4    16    13    1
     5     5     8    1
     6     5     1    1
     7    13    14    1
     8    13     1    1
     9     1     9    1
    10     1     2    1
    11    11     9    1
    12     4     2    1
    13     9    10    1
    14     9    12    1
    15     2     3    1
