@<TRIPOS>MOLECULE
2
 16 15 0 0 0
SMALL
GASTEIGER

@<TRIPOS>ATOM
      1 SI         19.6134    4.0521   15.7324 Si      1  UNL1        0.0000
      2 C          17.8214    3.8744   16.2771 C.3     1  UNL1        0.0000
      3 H          17.7674    3.9394   17.3689 H       1  UNL1        0.0000
      4 H          17.4801    2.8630   16.0274 H       1  UNL1        0.0000
      5 C          20.4648    5.5575   16.5669 C.3     1  UNL1        0.0000
      6 H          19.8256    6.4334   16.5202 H       1  UNL1        0.0000
      7 H          21.3995    5.8041   16.0726 H       1  UNL1        0.0000
      8 H          20.6933    5.3664   17.6112 H       1  UNL1        0.0000
      9 C          19.7225    4.3143   13.8396 C.3     1  UNL1        0.0000
     10 H          19.3726    3.4394   13.2996 H       1  UNL1        0.0000
     11 H          20.7396    4.5127   13.5125 H       1  UNL1        0.0000
     12 H          19.1052    5.1617   13.5456 H       1  UNL1        0.0000
     13 C          20.7314    2.5410   16.1422 C.3     1  UNL1        0.0000
     14 H          20.7600    2.3477   17.2101 H       1  UNL1        0.0000
     15 H          21.7538    2.6896   15.8090 H       1  UNL1        0.0000
     16 H          20.3581    1.6432   15.6599 H       1  UNL1        0.0000
@<TRIPOS>BOND
     1    10     9    1
     2    11     9    1
     3    12     9    1
     4     9     1    1
     5    16    13    1
     6     1    13    1
     7     1     2    1
     8     1     5    1
     9    15    13    1
    10     4     2    1
    11     7     5    1
    12    13    14    1
    13     2     3    1
    14     6     5    1
    15     5     8    1
