@<TRIPOS>MOLECULE
2
 16 15 0 0 0
SMALL
GASTEIGER

@<TRIPOS>ATOM
      1 SI          4.2504    7.4419   12.2033 Si      1  UNL1        0.0000
      2 C           4.0823    5.8581   11.1893 C.3     1  UNL1        0.0000
      3 H           4.4752    6.0867   10.1806 H       1  UNL1        0.0000
      4 H           3.0017    5.6912   11.0362 H       1  UNL1        0.0000
      5 C           3.9198    9.0517   11.2075 C.3     1  UNL1        0.0000
      6 H           4.5740    9.1185   10.3430 H       1  UNL1        0.0000
      7 H           4.0871    9.9387   11.8115 H       1  UNL1        0.0000
      8 H           2.8967    9.0912   10.8456 H       1  UNL1        0.0000
      9 C           3.0168    7.4606   13.6715 C.3     1  UNL1        0.0000
     10 H           1.9963    7.3178   13.3296 H       1  UNL1        0.0000
     11 H           3.0529    8.4103   14.1963 H       1  UNL1        0.0000
     12 H           3.2343    6.6797   14.3923 H       1  UNL1        0.0000
     13 C           6.0332    7.5791   12.8988 C.3     1  UNL1        0.0000
     14 H           6.4512    6.5898   13.0818 H       1  UNL1        0.0000
     15 H           6.0616    8.1318   13.8325 H       1  UNL1        0.0000
     16 H           6.6888    8.0914   12.2013 H       1  UNL1        0.0000
@<TRIPOS>BOND
     1     3     2    1
     2     6     5    1
     3     8     5    1
     4     4     2    1
     5     2     1    1
     6     5     7    1
     7     5     1    1
     8    16    13    1
     9     1    13    1
    10     1     9    1
    11    13    14    1
    12    13    15    1
    13    10     9    1
    14     9    11    1
    15     9    12    1
