@<TRIPOS>MOLECULE
2
 16 15 0 0 0
SMALL
GASTEIGER

@<TRIPOS>ATOM
      1 SI         -3.9805   -3.6594   -7.9272 Si      1  UNL1        0.0000
      2 C          -3.3261   -4.7525   -6.5370 C.3     1  UNL1        0.0000
      3 H          -2.2855   -4.4610   -6.3470 H       1  UNL1        0.0000
      4 H          -3.2810   -5.7888   -6.8987 H       1  UNL1        0.0000
      5 C          -4.4922   -1.9267   -7.2857 C.3     1  UNL1        0.0000
      6 H          -5.3760   -1.5639   -7.8019 H       1  UNL1        0.0000
      7 H          -3.7032   -1.1970   -7.4387 H       1  UNL1        0.0000
      8 H          -4.7231   -1.9529   -6.2229 H       1  UNL1        0.0000
      9 C          -2.6788   -3.3591   -9.3095 C.3     1  UNL1        0.0000
     10 H          -2.4082   -4.2868   -9.8041 H       1  UNL1        0.0000
     11 H          -1.7680   -2.9294   -8.9033 H       1  UNL1        0.0000
     12 H          -3.0494   -2.6786  -10.0701 H       1  UNL1        0.0000
     13 C          -5.4970   -4.4471   -8.7933 C.3     1  UNL1        0.0000
     14 H          -5.4099   -5.5281   -8.8482 H       1  UNL1        0.0000
     15 H          -5.5992   -4.0767   -9.8086 H       1  UNL1        0.0000
     16 H          -6.4138   -4.2034   -8.2673 H       1  UNL1        0.0000
@<TRIPOS>BOND
     1    12     9    1
     2    15    13    1
     3    10     9    1
     4     9    11    1
     5     9     1    1
     6    14    13    1
     7    13    16    1
     8    13     1    1
     9     1     5    1
    10     1     2    1
    11     6     5    1
    12     7     5    1
    13     5     8    1
    14     4     2    1
    15     2     3    1
