@<TRIPOS>MOLECULE
2
 16 15 0 0 0
SMALL
GASTEIGER

@<TRIPOS>ATOM
      1 SI         -6.1223   -7.4316   -2.5265 Si      1  UNL1        0.0000
      2 C          -4.5889   -6.9356   -3.5149 C.3     1  UNL1        0.0000
      3 H          -4.4691   -7.6467   -4.3448 H       1  UNL1        0.0000
      4 H          -3.7126   -7.0874   -2.8739 H       1  UNL1        0.0000
      5 C          -7.2626   -5.9433   -2.1164 C.3     1  UNL1        0.0000
      6 H          -7.2566   -5.2100   -2.9211 H       1  UNL1        0.0000
      7 H          -6.9476   -5.4434   -1.2051 H       1  UNL1        0.0000
      8 H          -8.2906   -6.2620   -1.9659 H       1  UNL1        0.0000
      9 C          -5.6905   -8.2524   -0.8449 C.3     1  UNL1        0.0000
     10 H          -5.0943   -9.1486   -0.9856 H       1  UNL1        0.0000
     11 H          -6.5870   -8.5367   -0.3022 H       1  UNL1        0.0000
     12 H          -5.1260   -7.5810   -0.2062 H       1  UNL1        0.0000
     13 C          -7.2052   -8.7281   -3.4464 C.3     1  UNL1        0.0000
     14 H          -8.0048   -8.2592   -4.0094 H       1  UNL1        0.0000
     15 H          -7.6661   -9.4151   -2.7438 H       1  UNL1        0.0000
     16 H          -6.6184   -9.3236   -4.1390 H       1  UNL1        0.0000
@<TRIPOS>BOND
     1     3     2    1
     2    16    13    1
     3    14    13    1
     4     2     4    1
     5     2     1    1
     6    13    15    1
     7    13     1    1
     8     6     5    1
     9     1     5    1
    10     1     9    1
    11     5     8    1
    12     5     7    1
    13    10     9    1
    14     9    11    1
    15     9    12    1
