@<TRIPOS>MOLECULE
3
 35 35 0 0 0
SMALL
GASTEIGER

@<TRIPOS>ATOM
      1 SI         -1.2570    6.7012   -1.7950 Si      1  UNL1        0.0000
      2 O           2.2330    6.7623    1.8094 O.3     1  UNL1        0.0000
      3 C           4.3283   11.4433    4.8424 C.1     1  UNL1        0.0000
      4 O           1.8347   12.2498    2.5178 O.3     1  UNL1        0.0000
      5 C           3.6121   10.8646    4.0473 C.1     1  UNL1        0.0000
      6 C           2.8135   10.1822    3.1064 C.ar    1  UNL1        0.0000
      7 C           1.8956   10.8892    2.3043 C.ar    1  UNL1        0.0000
      8 C           1.1296   10.2061    1.3836 C.ar    1  UNL1        0.0000
      9 H           0.4155   10.7136    0.7535 H       1  UNL1        0.0000
     10 C           1.2560    8.8221    1.2328 C.ar    1  UNL1        0.0000
     11 C           2.1723    8.1113    2.0277 C.ar    1  UNL1        0.0000
     12 C           2.9361    8.8002    2.9530 C.ar    1  UNL1        0.0000
     13 H           3.6458    8.2884    3.5854 H       1  UNL1        0.0000
     14 C           0.4642    8.1472    0.2814 C.1     1  UNL1        0.0000
     15 C          -0.2273    7.5908   -0.5422 C.1     1  UNL1        0.0000
     16 C           3.1293    6.0042    2.5761 C.3     1  UNL1        0.0000
     17 H           2.9998    4.9739    2.2475 H       1  UNL1        0.0000
     18 H           2.9088    6.0758    3.6462 H       1  UNL1        0.0000
     19 H           4.1690    6.3072    2.4071 H       1  UNL1        0.0000
     20 C           0.9741   13.0074    1.7108 C.3     1  UNL1        0.0000
     21 H           1.1061   14.0426    2.0250 H       1  UNL1        0.0000
     22 H          -0.0735   12.7188    1.8531 H       1  UNL1        0.0000
     23 H           1.2320   12.9181    0.6503 H       1  UNL1        0.0000
     24 C          -3.0996    6.9028   -1.3383 C.3     1  UNL1        0.0000
     25 H          -3.3056    6.4935   -0.3539 H       1  UNL1        0.0000
     26 H          -3.7454    6.3939   -2.0486 H       1  UNL1        0.0000
     27 H          -3.3878    7.9498   -1.3237 H       1  UNL1        0.0000
     28 C          -0.7770    4.8560   -1.7923 C.3     1  UNL1        0.0000
     29 H           0.2735    4.7275   -2.0348 H       1  UNL1        0.0000
     30 H          -1.3556    4.2889   -2.5164 H       1  UNL1        0.0000
     31 H          -0.9428    4.4117   -0.8156 H       1  UNL1        0.0000
     32 C          -0.9329    7.4617   -3.5155 C.3     1  UNL1        0.0000
     33 H           0.1155    7.3811   -3.7867 H       1  UNL1        0.0000
     34 H          -1.1953    8.5154   -3.5350 H       1  UNL1        0.0000
     35 H          -1.5125    6.9640   -4.2880 H       1  UNL1        0.0000
@<TRIPOS>BOND
     1    35    32    1
     2    33    32    1
     3    34    32    1
     4    32     1    1
     5    30    28    1
     6    26    24    1
     7    29    28    1
     8     1    28    1
     9     1    24    1
    10     1    15    1
    11    28    31    1
    12    24    27    1
    13    24    25    1
    14    15    14    3
    15    14    10    1
    16    23    20    1
    17     9     8    1
    18    10     8   ar
    19    10    11   ar
    20     8     7   ar
    21    20    22    1
    22    20    21    1
    23    20     4    1
    24     2    11    1
    25     2    16    1
    26    11    12   ar
    27    17    16    1
    28     7     4    1
    29     7     6   ar
    30    19    16    1
    31    16    18    1
    32    12     6   ar
    33    12    13    1
    34     6     5    1
    35     5     3    3
