@<TRIPOS>MOLECULE
3
 35 35 0 0 0
SMALL
GASTEIGER

@<TRIPOS>ATOM
      1 SI         12.3079   18.1054   14.1211 Si      1  UNL1        0.0000
      2 O           8.8249   18.0470   10.5114 O.3     1  UNL1        0.0000
      3 C           6.7218   13.3672    7.4813 C.1     1  UNL1        0.0000
      4 O           9.2073   12.5570    9.8130 O.3     1  UNL1        0.0000
      5 C           7.4377   13.9452    8.2772 C.1     1  UNL1        0.0000
      6 C           8.2362   14.6267    9.2189 C.ar    1  UNL1        0.0000
      7 C           9.1502   13.9181   10.0242 C.ar    1  UNL1        0.0000
      8 C           9.9164   14.6005   10.9454 C.ar    1  UNL1        0.0000
      9 H          10.6276   14.0917   11.5778 H       1  UNL1        0.0000
     10 C           9.7940   15.9850   11.0936 C.ar    1  UNL1        0.0000
     11 C           8.8817   16.6974   10.2955 C.ar    1  UNL1        0.0000
     12 C           8.1177   16.0094    9.3697 C.ar    1  UNL1        0.0000
     13 H           7.4109   16.5223    8.7350 H       1  UNL1        0.0000
     14 C          10.5859   16.6592   12.0454 C.1     1  UNL1        0.0000
     15 C          11.2781   17.2155   12.8685 C.1     1  UNL1        0.0000
     16 C           7.9336   18.8069    9.7408 C.3     1  UNL1        0.0000
     17 H           8.0656   19.8373   10.0682 H       1  UNL1        0.0000
     18 H           8.1571   18.7329    8.6716 H       1  UNL1        0.0000
     19 H           6.8923   18.5078    9.9071 H       1  UNL1        0.0000
     20 C          10.0617   11.7978   10.6250 C.3     1  UNL1        0.0000
     21 H           9.9260   10.7623   10.3132 H       1  UNL1        0.0000
     22 H          11.1110   12.0811   10.4856 H       1  UNL1        0.0000
     23 H           9.8005   11.8910   11.6844 H       1  UNL1        0.0000
     24 C          14.1502   17.9030   13.6639 C.3     1  UNL1        0.0000
     25 H          14.3560   18.3119   12.6792 H       1  UNL1        0.0000
     26 H          14.7965   18.4120   14.3737 H       1  UNL1        0.0000
     27 H          14.4381   16.8559   13.6494 H       1  UNL1        0.0000
     28 C          11.8282   19.9506   14.1176 C.3     1  UNL1        0.0000
     29 H          10.7777   20.0793   14.3604 H       1  UNL1        0.0000
     30 H          12.4070   20.5181   14.8413 H       1  UNL1        0.0000
     31 H          11.9936   20.3944   13.1406 H       1  UNL1        0.0000
     32 C          11.9843   17.3456   15.8420 C.3     1  UNL1        0.0000
     33 H          10.9360   17.4263   16.1134 H       1  UNL1        0.0000
     34 H          12.2467   16.2919   15.8620 H       1  UNL1        0.0000
     35 H          12.5640   17.8437   16.6143 H       1  UNL1        0.0000
@<TRIPOS>BOND
     1     3     5    3
     2     5     6    1
     3    18    16    1
     4    13    12    1
     5     6    12   ar
     6     6     7   ar
     7    12    11   ar
     8    16    19    1
     9    16    17    1
    10    16     2    1
    11     4     7    1
    12     4    20    1
    13     7     8   ar
    14    11     2    1
    15    11    10   ar
    16    21    20    1
    17    22    20    1
    18    20    23    1
    19     8    10   ar
    20     8     9    1
    21    10    14    1
    22    14    15    3
    23    25    24    1
    24    15     1    1
    25    31    28    1
    26    27    24    1
    27    24     1    1
    28    24    26    1
    29    28     1    1
    30    28    29    1
    31    28    30    1
    32     1    32    1
    33    32    34    1
    34    32    33    1
    35    32    35    1
