@<TRIPOS>MOLECULE
2
 16 15 0 0 0
SMALL
GASTEIGER

@<TRIPOS>ATOM
      1 SI          7.8166    2.4004    3.0452 Si      1  UNL1        0.0000
      2 C           6.2726    3.4809    2.9908 C.3     1  UNL1        0.0000
      3 H           6.0931    3.8033    1.9577 H       1  UNL1        0.0000
      4 H           6.4276    4.3918    3.5797 H       1  UNL1        0.0000
      5 C           7.4005    0.7364    2.1795 C.3     1  UNL1        0.0000
      6 H           6.5104    0.2740    2.6111 H       1  UNL1        0.0000
      7 H           8.2178    0.0264    2.2607 H       1  UNL1        0.0000
      8 H           7.2099    0.8887    1.1213 H       1  UNL1        0.0000
      9 C           8.2950    2.0269    4.8626 C.3     1  UNL1        0.0000
     10 H           8.5074    2.9420    5.4062 H       1  UNL1        0.0000
     11 H           9.1837    1.4057    4.9170 H       1  UNL1        0.0000
     12 H           7.4981    1.5059    5.3874 H       1  UNL1        0.0000
     13 C           9.3709    3.1199    2.1844 C.3     1  UNL1        0.0000
     14 H           9.1751    3.3340    1.1384 H       1  UNL1        0.0000
     15 H          10.2090    2.4312    2.2263 H       1  UNL1        0.0000
     16 H           9.6849    4.0468    2.6539 H       1  UNL1        0.0000
@<TRIPOS>BOND
     1     8     5    1
     2    14    13    1
     3     3     2    1
     4     5     7    1
     5     5     6    1
     6     5     1    1
     7    13    15    1
     8    13    16    1
     9    13     1    1
    10     2     1    1
    11     2     4    1
    12     1     9    1
    13     9    11    1
    14     9    12    1
    15     9    10    1
