@<TRIPOS>MOLECULE
2
 16 15 0 0 0
SMALL
GASTEIGER

@<TRIPOS>ATOM
      1 SI          2.0247    0.0701    2.3692 Si      1  UNL1        0.0000
      2 C           3.3122    1.3730    1.9221 C.3     1  UNL1        0.0000
      3 H           2.8337    2.1703    1.3404 H       1  UNL1        0.0000
      4 H           4.0659    0.9283    1.2609 H       1  UNL1        0.0000
      5 C           0.7308    0.8495    3.5453 C.3     1  UNL1        0.0000
      6 H           1.2129    1.3852    4.3619 H       1  UNL1        0.0000
      7 H           0.0909    0.0921    3.9866 H       1  UNL1        0.0000
      8 H           0.0861    1.5500    3.0235 H       1  UNL1        0.0000
      9 C           2.8786   -1.3820    3.2842 C.3     1  UNL1        0.0000
     10 H           3.9138   -1.4963    2.9733 H       1  UNL1        0.0000
     11 H           2.3750   -2.3232    3.0884 H       1  UNL1        0.0000
     12 H           2.8706   -1.2299    4.3592 H       1  UNL1        0.0000
     13 C           1.0764   -0.6648    0.8734 C.3     1  UNL1        0.0000
     14 H           0.5801    0.1133    0.3021 H       1  UNL1        0.0000
     15 H           0.3169   -1.3733    1.1895 H       1  UNL1        0.0000
     16 H           1.7501   -1.1848    0.1995 H       1  UNL1        0.0000
@<TRIPOS>BOND
     1    16    13    1
     2    14    13    1
     3    13    15    1
     4    13     1    1
     5     4     2    1
     6     3     2    1
     7     2     1    1
     8     1     9    1
     9     1     5    1
    10    10     9    1
    11     8     5    1
    12    11     9    1
    13     9    12    1
    14     5     7    1
    15     5     6    1
