@<TRIPOS>MOLECULE
1
 14 13 0 0 0
SMALL
GASTEIGER

@<TRIPOS>ATOM
      1 C           2.2809    2.7266    4.4841 C.3     1  UNL1        0.0000
      2 SI          1.4225    1.0719    4.4742 Si      1  UNL1        0.0000
      3 C           0.0496    0.8644    5.7959 C.3     1  UNL1        0.0000
      4 C           2.6270   -0.3912    4.7755 C.3     1  UNL1        0.0000
      5 C           0.5942    0.7297    2.7837 C.3     1  UNL1        0.0000
      6 H          -0.6518    1.6920    5.7828 H       1  UNL1        0.0000
      7 H          -0.5151   -0.0446    5.6072 H       1  UNL1        0.0000
      8 H           0.4578    0.7878    6.8000 H       1  UNL1        0.0000
      9 H           2.0824   -1.3313    4.7614 H       1  UNL1        0.0000
     10 H           3.3967   -0.4479    4.0122 H       1  UNL1        0.0000
     11 H           3.1267   -0.3155    5.7371 H       1  UNL1        0.0000
     12 H           1.3254    0.6497    1.9861 H       1  UNL1        0.0000
     13 H           0.0436   -0.2060    2.8190 H       1  UNL1        0.0000
     14 H          -0.1042    1.5136    2.5110 H       1  UNL1        0.0000
@<TRIPOS>BOND
     1    12     5    1
     2    14     5    1
     3     5    13    1
     4     5     2    1
     5    10     4    1
     6     2     1    1
     7     2     4    1
     8     2     3    1
     9     9     4    1
    10     4    11    1
    11     7     3    1
    12     6     3    1
    13     3     8    1
