@<TRIPOS>MOLECULE
2
 16 15 0 0 0
SMALL
GASTEIGER

@<TRIPOS>ATOM
      1 SI         10.8238   12.7929    2.3782 Si      1  UNL1        0.0000
      2 C           9.7935   14.0030    1.3511 C.3     1  UNL1        0.0000
      3 H           9.6948   13.5625    0.3645 H       1  UNL1        0.0000
      4 H          10.3924   14.9012    1.2423 H       1  UNL1        0.0000
      5 C          11.3430   13.4070    4.1119 C.3     1  UNL1        0.0000
      6 H          11.9320   14.3146    4.0501 H       1  UNL1        0.0000
      7 H          11.9421   12.6590    4.6233 H       1  UNL1        0.0000
      8 H          10.4790   13.6159    4.7317 H       1  UNL1        0.0000
      9 C          12.4638   12.5014    1.4173 C.3     1  UNL1        0.0000
     10 H          12.2737   12.0747    0.4373 H       1  UNL1        0.0000
     11 H          13.1219   11.8208    1.9487 H       1  UNL1        0.0000
     12 H          13.0042   13.4316    1.2708 H       1  UNL1        0.0000
     13 C          10.0704   11.0573    2.6477 C.3     1  UNL1        0.0000
     14 H           9.1231   11.1146    3.1711 H       1  UNL1        0.0000
     15 H          10.7364   10.4360    3.2396 H       1  UNL1        0.0000
     16 H           9.8981   10.5506    1.7054 H       1  UNL1        0.0000
@<TRIPOS>BOND
     1     3     2    1
     2    10     9    1
     3     4     2    1
     4    12     9    1
     5     2     1    1
     6     9    11    1
     7     9     1    1
     8    16    13    1
     9     1    13    1
    10     1     5    1
    11    13    14    1
    12    13    15    1
    13     6     5    1
    14     5     7    1
    15     5     8    1
