@<TRIPOS>MOLECULE
2
 16 15 0 0 0
SMALL
GASTEIGER

@<TRIPOS>ATOM
      1 SI          5.7138   13.7963    4.9578 Si      1  UNL1        0.0000
      2 C           7.2973   13.5925    3.9646 C.3     1  UNL1        0.0000
      3 H           7.4110   12.5329    3.7147 H       1  UNL1        0.0000
      4 H           8.1489   13.8650    4.5968 H       1  UNL1        0.0000
      5 C           5.3514   15.5946    5.4960 C.3     1  UNL1        0.0000
      6 H           6.1853   16.0331    6.0344 H       1  UNL1        0.0000
      7 H           4.4877   15.6310    6.1540 H       1  UNL1        0.0000
      8 H           5.1395   16.2274    4.6415 H       1  UNL1        0.0000
      9 C           4.1671   13.1609    4.0306 C.3     1  UNL1        0.0000
     10 H           4.0224   13.6924    3.0965 H       1  UNL1        0.0000
     11 H           3.2724   13.3014    4.6303 H       1  UNL1        0.0000
     12 H           4.2402   12.1021    3.8034 H       1  UNL1        0.0000
     13 C           5.8619   12.7628    6.5687 C.3     1  UNL1        0.0000
     14 H           6.0344   11.7133    6.3508 H       1  UNL1        0.0000
     15 H           4.9585   12.8277    7.1674 H       1  UNL1        0.0000
     16 H           6.6871   13.1075    7.1843 H       1  UNL1        0.0000
@<TRIPOS>BOND
     1    10     9    1
     2     3     2    1
     3    12     9    1
     4     2     4    1
     5     2     1    1
     6     9    11    1
     7     9     1    1
     8     8     5    1
     9     1     5    1
    10     1    13    1
    11     5     6    1
    12     5     7    1
    13    14    13    1
    14    13    15    1
    15    13    16    1
