@<TRIPOS>MOLECULE
1
 4 3 0 0 0
SMALL
GASTEIGER

@<TRIPOS>ATOM
      1 C           2.2677    0.1898    2.1745 C.3     1  UNL1       -0.0681
      2 H           1.3640   -0.2748    1.7519 H       1  UNL1        0.0227
      3 H           2.6056   -0.4445    3.0046 H       1  UNL1        0.0227
      4 H           3.0473    0.1384    1.4000 H       1  UNL1        0.0227
@<TRIPOS>BOND
     1     4     1    1
     2     2     1    1
     3     1     3    1
