@<TRIPOS>MOLECULE
1
 4 3 0 0 0
SMALL
GASTEIGER

@<TRIPOS>ATOM
      1 C           3.3731    2.4396    4.0544 C.3     1  UNL1       -0.0681
      2 H           3.3579    1.7615    4.9183 H       1  UNL1        0.0227
      3 H           3.3425    3.4676    4.4493 H       1  UNL1        0.0227
      4 H           4.3563    2.3082    3.5743 H       1  UNL1        0.0227
@<TRIPOS>BOND
     1     4     1    1
     2     1     3    1
     3     1     2    1
