@<TRIPOS>MOLECULE
4
 14 15 0 0 0
SMALL
GASTEIGER

@<TRIPOS>ATOM
      1 O          -2.1719   -2.9962    1.9944 O.2     1  UNL1       -0.4623
      2 C          -2.4933   -1.8039    2.5869 C.ar    1  UNL1        0.1009
      3 H          -3.5405   -1.5646    2.5622 H       1  UNL1        0.1036
      4 C          -1.4375   -1.1228    3.0955 C.ar    1  UNL1        0.0312
      5 C          -0.3163   -1.9777    2.7953 C.ar    1  UNL1        0.0280
      6 C           1.0555   -1.9020    3.0259 C.ar    1  UNL1       -0.0504
      7 H           1.4672   -1.0436    3.5338 H       1  UNL1        0.0625
      8 C           1.8590   -2.9336    2.5903 C.ar    1  UNL1       -0.0610
      9 H           2.9254   -2.8898    2.7605 H       1  UNL1        0.0618
     10 C           1.3275   -4.0415    1.9286 C.ar    1  UNL1       -0.0582
     11 H           1.9885   -4.8309    1.6019 H       1  UNL1        0.0619
     12 C          -0.0271   -4.1459    1.6834 C.ar    1  UNL1       -0.0187
     13 H          -0.4501   -4.9968    1.1720 H       1  UNL1        0.0654
     14 C          -0.8306   -3.1066    2.1229 C.ar    1  UNL1        0.1354
@<TRIPOS>BOND
     1    13    12    1
     2    11    10    1
     3    12    10   ar
     4    12    14   ar
     5    10     8   ar
     6     1    14   ar
     7     1     2   ar
     8    14     5   ar
     9     3     2    1
    10     2     4   ar
    11     8     9    1
    12     8     6   ar
    13     5     6   ar
    14     5     4   ar
    15     6     7    1
