@<TRIPOS>MOLECULE
1
 16 15 0 0 0
SMALL
GASTEIGER

@<TRIPOS>ATOM
      1 C          14.5789    3.5216    4.3593 C.3     1  UNL1        0.0000
      2 SI         15.7600    2.6878    5.5740 Si      1  UNL1        0.0000
      3 C          15.7337    0.7772    5.6533 C.3     1  UNL1        0.0000
      4 C          15.4074    3.2863    7.3683 C.3     1  UNL1        0.0000
      5 C          17.5887    3.1857    5.2278 C.3     1  UNL1        0.0000
      6 H          14.9743    4.5305    4.1705 H       1  UNL1        0.0000
      7 H          13.6284    3.6714    4.8889 H       1  UNL1        0.0000
      8 H          14.7325    0.3940    5.8188 H       1  UNL1        0.0000
      9 H          16.0960    0.3286    4.7343 H       1  UNL1        0.0000
     10 H          16.3603    0.4175    6.4650 H       1  UNL1        0.0000
     11 H          15.4840    4.3665    7.4498 H       1  UNL1        0.0000
     12 H          14.4070    3.0059    7.6843 H       1  UNL1        0.0000
     13 H          16.1057    2.8559    8.0792 H       1  UNL1        0.0000
     14 H          18.2262    2.8710    6.0483 H       1  UNL1        0.0000
     15 H          17.9813    2.7223    4.3266 H       1  UNL1        0.0000
     16 H          17.7017    4.2619    5.1285 H       1  UNL1        0.0000
@<TRIPOS>BOND
     1     6     1    1
     2    15     5    1
     3     1     7    1
     4     1     2    1
     5     9     3    1
     6    16     5    1
     7     5     2    1
     8     5    14    1
     9     2     3    1
    10     2     4    1
    11     3     8    1
    12     3    10    1
    13     4    11    1
    14     4    12    1
    15     4    13    1
