@<TRIPOS>MOLECULE
2
 15 14 0 0 0
SMALL
GASTEIGER

@<TRIPOS>ATOM
      1 SI         10.2399    1.4394   -0.2612 Si      1  UNL1        0.0000
      2 C           9.5950    3.1598   -0.3421 C.3     1  UNL1        0.0000
      3 C           8.8148    0.1405   -0.3650 C.3     1  UNL1        0.0000
      4 C          11.1738    0.9673    1.3553 C.3     1  UNL1        0.0000
      5 C          11.4371    0.8151   -1.6547 C.3     1  UNL1        0.0000
      6 H           8.6745    3.1547   -0.9600 H       1  UNL1        0.0000
      7 H           8.2236    0.2928   -1.2633 H       1  UNL1        0.0000
      8 H           8.1409    0.2203    0.4828 H       1  UNL1        0.0000
      9 H           9.1884   -0.8789   -0.3906 H       1  UNL1        0.0000
     10 H          11.3945   -0.0958    1.3702 H       1  UNL1        0.0000
     11 H          10.5783    1.1846    2.2367 H       1  UNL1        0.0000
     12 H          12.1194    1.4900    1.4550 H       1  UNL1        0.0000
     13 H          10.9833    0.9079   -2.6382 H       1  UNL1        0.0000
     14 H          11.6808   -0.2347   -1.5142 H       1  UNL1        0.0000
     15 H          12.3766    1.3603   -1.6729 H       1  UNL1        0.0000
@<TRIPOS>BOND
     1    13     5    1
     2    15     5    1
     3     5    14    1
     4     5     1    1
     5     7     3    1
     6     6     2    1
     7     9     3    1
     8     3     1    1
     9     3     8    1
    10     2     1    1
    11     1     4    1
    12     4    10    1
    13     4    12    1
    14     4    11    1
