@<TRIPOS>MOLECULE
2
 16 15 0 0 0
SMALL
GASTEIGER

@<TRIPOS>ATOM
      1 SI          5.8068    0.9895    5.9730 Si      1  UNL1        0.0000
      2 C           5.7325    2.2028    4.5331 C.3     1  UNL1        0.0000
      3 H           5.8499    1.5908    3.6206 H       1  UNL1        0.0000
      4 H           6.6521    2.8093    4.5733 H       1  UNL1        0.0000
      5 C           5.9202    1.8905    7.6626 C.3     1  UNL1        0.0000
      6 H           6.8125    2.5059    7.7229 H       1  UNL1        0.0000
      7 H           5.9614    1.1797    8.4826 H       1  UNL1        0.0000
      8 H           5.0606    2.5327    7.8269 H       1  UNL1        0.0000
      9 C           7.3118   -0.2069    5.9233 C.3     1  UNL1        0.0000
     10 H           7.3254   -0.7772    4.9989 H       1  UNL1        0.0000
     11 H           7.2931   -0.9177    6.7445 H       1  UNL1        0.0000
     12 H           8.2503    0.3362    5.9832 H       1  UNL1        0.0000
     13 C           4.2452   -0.1282    5.9812 C.3     1  UNL1        0.0000
     14 H           3.4536    0.3131    5.3795 H       1  UNL1        0.0000
     15 H           3.8605   -0.2718    6.9859 H       1  UNL1        0.0000
     16 H           4.4553   -1.1098    5.5689 H       1  UNL1        0.0000
@<TRIPOS>BOND
     1     3     2    1
     2     2     4    1
     3     2     1    1
     4    10     9    1
     5    14    13    1
     6    16    13    1
     7     9     1    1
     8     9    12    1
     9     9    11    1
    10     1    13    1
    11     1     5    1
    12    13    15    1
    13     5     6    1
    14     5     8    1
    15     5     7    1
