@<TRIPOS>MOLECULE
2
 16 15 0 0 0
SMALL
GASTEIGER

@<TRIPOS>ATOM
      1 SI          5.3370    5.2488    1.1336 Si      1  UNL1        0.0000
      2 C           4.0546    5.1781    2.5199 C.3     1  UNL1        0.0000
      3 H           3.0663    5.1109    2.0211 H       1  UNL1        0.0000
      4 H           4.0551    6.1652    3.0168 H       1  UNL1        0.0000
      5 C           6.8783    6.2845    1.6118 C.3     1  UNL1        0.0000
      6 H           6.6074    7.1503    2.2075 H       1  UNL1        0.0000
      7 H           7.3907    6.6466    0.7258 H       1  UNL1        0.0000
      8 H           7.5919    5.7006    2.1830 H       1  UNL1        0.0000
      9 C           4.6838    6.0290   -0.4982 C.3     1  UNL1        0.0000
     10 H           3.8162    5.4965   -0.8745 H       1  UNL1        0.0000
     11 H           5.4383    6.0100   -1.2793 H       1  UNL1        0.0000
     12 H           4.3935    7.0650   -0.3492 H       1  UNL1        0.0000
     13 C           5.9600    3.4888    0.6913 C.3     1  UNL1        0.0000
     14 H           6.2253    2.9379    1.5917 H       1  UNL1        0.0000
     15 H           6.8387    3.5260    0.0546 H       1  UNL1        0.0000
     16 H           5.2018    2.9182    0.1632 H       1  UNL1        0.0000
@<TRIPOS>BOND
     1    11     9    1
     2    10     9    1
     3     9    12    1
     4     9     1    1
     5    15    13    1
     6    16    13    1
     7    13     1    1
     8    13    14    1
     9     7     5    1
    10     1     5    1
    11     1     2    1
    12     5     8    1
    13     5     6    1
    14     3     2    1
    15     2     4    1
