@<TRIPOS>MOLECULE
2
 16 15 0 0 0
SMALL
GASTEIGER

@<TRIPOS>ATOM
      1 SI          1.2037    6.6702    3.1386 Si      1  UNL1        0.0000
      2 C           0.6574    8.4596    3.5333 C.3     1  UNL1        0.0000
      3 C           0.4411    6.1586    1.4572 C.3     1  UNL1        0.0000
      4 C           3.1141    6.5434    3.0646 C.3     1  UNL1        0.0000
      5 C           0.5816    5.4359    4.4700 C.3     1  UNL1        0.0000
      6 H           0.6850    8.6160    4.6232 H       1  UNL1        0.0000
      7 H          -0.3875    8.5943    3.2108 H       1  UNL1        0.0000
      8 H          -0.6431    6.1138    1.4906 H       1  UNL1        0.0000
      9 H           0.7328    6.8851    0.7024 H       1  UNL1        0.0000
     10 H           0.7992    5.1851    1.1394 H       1  UNL1        0.0000
     11 H           3.4707    5.5206    2.9784 H       1  UNL1        0.0000
     12 H           3.4774    7.1165    2.2034 H       1  UNL1        0.0000
     13 H           3.5623    6.9842    3.9542 H       1  UNL1        0.0000
     14 H          -0.4984    5.4643    4.5641 H       1  UNL1        0.0000
     15 H           0.8581    4.4198    4.2133 H       1  UNL1        0.0000
     16 H           1.0025    5.6521    5.4460 H       1  UNL1        0.0000
@<TRIPOS>BOND
     1     9     3    1
     2    10     3    1
     3     3     8    1
     4     3     1    1
     5    12     4    1
     6    11     4    1
     7     4     1    1
     8     4    13    1
     9     1     2    1
    10     1     5    1
    11     7     2    1
    12     2     6    1
    13    15     5    1
    14     5    14    1
    15     5    16    1
