@<TRIPOS>MOLECULE
4
 29 28 0 0 0
SMALL
GASTEIGER

@<TRIPOS>ATOM
      1 P          -1.1175    3.8297   14.5325 P.3     1  UNL1        0.0000
      2 SI          0.3414    2.6539   13.2438 Si      1  UNL1        0.0000
      3 O          -3.1976    3.2354   12.8993 O.2     1  UNL1        0.0000
      4 C          -2.3186    4.0283   13.1475 C.2     1  UNL1        0.0000
      5 C           1.1943    3.9926   12.1857 C.3     1  UNL1        0.0000
      6 C           1.6673    1.8602   14.3699 C.3     1  UNL1        0.0000
      7 C          -0.4005    1.3257   12.0711 C.3     1  UNL1        0.0000
      8 C          -1.9543    2.5570   15.6685 C.3     1  UNL1        0.0000
      9 C          -3.2953    3.1673   16.0809 C.3     1  UNL1        0.0000
     10 C          -1.0522    2.4381   16.8980 C.3     1  UNL1        0.0000
     11 C          -2.1768    1.1886   15.0369 C.3     1  UNL1        0.0000
     12 H           0.4541    4.5617   11.6263 H       1  UNL1        0.0000
     13 H           1.8951    3.5580   11.4799 H       1  UNL1        0.0000
     14 H           1.7411    4.6924   12.8094 H       1  UNL1        0.0000
     15 H           1.3050    0.9745   14.8808 H       1  UNL1        0.0000
     16 H           2.0120    2.5636   15.1207 H       1  UNL1        0.0000
     17 H           2.5247    1.5655   13.7748 H       1  UNL1        0.0000
     18 H          -0.3176    0.3254   12.4853 H       1  UNL1        0.0000
     19 H           0.1086    1.3256   11.1111 H       1  UNL1        0.0000
     20 H          -1.4529    1.5182   11.8891 H       1  UNL1        0.0000
     21 H          -3.9704    3.2209   15.2294 H       1  UNL1        0.0000
     22 H          -3.1533    4.1745   16.4723 H       1  UNL1        0.0000
     23 H          -3.7654    2.5596   16.8532 H       1  UNL1        0.0000
     24 H          -0.0840    2.0205   16.6315 H       1  UNL1        0.0000
     25 H          -1.5150    1.7917   17.6429 H       1  UNL1        0.0000
     26 H          -0.8919    3.4186   17.3435 H       1  UNL1        0.0000
     27 H          -2.7529    1.2812   14.1205 H       1  UNL1        0.0000
     28 H          -2.7348    0.5560   15.7275 H       1  UNL1        0.0000
     29 H          -1.2304    0.7012   14.8157 H       1  UNL1        0.0000
@<TRIPOS>BOND
     1    19     7    1
     2    13     5    1
     3    12     5    1
     4    20     7    1
     5     7    18    1
     6     7     2    1
     7     5    14    1
     8     5     2    1
     9     3     4    2
    10     4     1    1
    11     2     6    1
    12     2     1    1
    13    17     6    1
    14    27    11    1
    15     6    15    1
    16     6    16    1
    17     1     8    1
    18    29    11    1
    19    11     8    1
    20    11    28    1
    21    21     9    1
    22     8     9    1
    23     8    10    1
    24     9    22    1
    25     9    23    1
    26    24    10    1
    27    10    26    1
    28    10    25    1
