@<TRIPOS>MOLECULE
1
 3 2 0 0 0
SMALL
GASTEIGER

@<TRIPOS>ATOM
      1 C           1.7959    2.0848    5.2567 C.3     1  UNL1       -0.0531
      2 H           1.5185    1.0245    5.3051 H       1  UNL1        0.0265
      3 H           2.0857    2.4147    6.2621 H       1  UNL1        0.0265
@<TRIPOS>BOND
     1     1     2    1
     2     1     3    1
