@<TRIPOS>MOLECULE
2
 15 14 0 0 0
SMALL
GASTEIGER

@<TRIPOS>ATOM
      1 SI          4.7243    9.1374    7.9566 Si      1  UNL1        0.0000
      2 C           6.5060    8.8397    8.4570 C.3     1  UNL1        0.0000
      3 C           4.0666   10.8341    8.5568 C.3     1  UNL1        0.0000
      4 H           3.6014   11.3920    7.7512 H       1  UNL1        0.0000
      5 H           3.3217   10.7237    9.3396 H       1  UNL1        0.0000
      6 H           4.8826   11.4331    8.9497 H       1  UNL1        0.0000
      7 C           4.5441    8.9846    6.0482 C.3     1  UNL1        0.0000
      8 H           3.5251    9.1956    5.7389 H       1  UNL1        0.0000
      9 H           5.1983    9.6740    5.5246 H       1  UNL1        0.0000
     10 H           4.7839    7.9798    5.7125 H       1  UNL1        0.0000
     11 C           3.5772    7.7799    8.6984 C.3     1  UNL1        0.0000
     12 H           2.5604    7.8874    8.3334 H       1  UNL1        0.0000
     13 H           3.9153    6.7843    8.4259 H       1  UNL1        0.0000
     14 H           3.5382    7.8281    9.7835 H       1  UNL1        0.0000
     15 H           6.7226    7.7674    8.4216 H       1  UNL1        0.0000
@<TRIPOS>BOND
     1     9     7    1
     2    10     7    1
     3     8     7    1
     4     7     1    1
     5     4     3    1
     6     1     2    1
     7     1     3    1
     8     1    11    1
     9    12    11    1
    10    15     2    1
    11    13    11    1
    12     3     6    1
    13     3     5    1
    14    11    14    1
