@<TRIPOS>MOLECULE
2
 16 15 0 0 0
SMALL
GASTEIGER

@<TRIPOS>ATOM
      1 SI         -1.9414    4.6306    3.0426 Si      1  UNL1        0.0000
      2 C          -0.1767    4.3124    3.6154 C.3     1  UNL1        0.0000
      3 C          -2.0316    5.6254    1.3964 C.3     1  UNL1        0.0000
      4 C          -2.7968    2.9509    2.6685 C.3     1  UNL1        0.0000
      5 C          -3.0657    5.6159    4.2493 C.3     1  UNL1        0.0000
      6 H           0.2065    3.5366    2.9413 H       1  UNL1        0.0000
      7 H           0.4323    5.2095    3.4146 H       1  UNL1        0.0000
      8 H          -3.0550    5.7458    1.0553 H       1  UNL1        0.0000
      9 H          -1.4804    5.1292    0.6034 H       1  UNL1        0.0000
     10 H          -1.6090    6.6192    1.5122 H       1  UNL1        0.0000
     11 H          -3.8502    3.0884    2.4474 H       1  UNL1        0.0000
     12 H          -2.7246    2.2589    3.5016 H       1  UNL1        0.0000
     13 H          -2.3461    2.4728    1.8042 H       1  UNL1        0.0000
     14 H          -3.0993    5.1772    5.2417 H       1  UNL1        0.0000
     15 H          -4.0834    5.6469    3.8708 H       1  UNL1        0.0000
     16 H          -2.7342    6.6440    4.3542 H       1  UNL1        0.0000
@<TRIPOS>BOND
     1     9     3    1
     2     8     3    1
     3     3    10    1
     4     3     1    1
     5    13     4    1
     6    11     4    1
     7     4     1    1
     8     4    12    1
     9     6     2    1
    10     1     2    1
    11     1     5    1
    12     7     2    1
    13    15     5    1
    14     5    16    1
    15     5    14    1
