@<TRIPOS>MOLECULE
2
 16 15 0 0 0
SMALL
GASTEIGER

@<TRIPOS>ATOM
      1 SI         -2.1110    2.2514    7.8774 Si      1  UNL1        0.0000
      2 C          -1.4974    2.6226    6.1375 C.3     1  UNL1        0.0000
      3 C          -0.6842    2.0851    9.1646 C.3     1  UNL1        0.0000
      4 C          -3.2915    3.6127    8.5395 C.3     1  UNL1        0.0000
      5 C          -3.1012    0.6074    7.9941 C.3     1  UNL1        0.0000
      6 H          -1.4292    1.6752    5.5827 H       1  UNL1        0.0000
      7 H          -2.2894    3.1971    5.6410 H       1  UNL1        0.0000
      8 H          -0.5693    1.0596    9.5036 H       1  UNL1        0.0000
      9 H           0.2660    2.4115    8.7462 H       1  UNL1        0.0000
     10 H          -0.8831    2.6831   10.0493 H       1  UNL1        0.0000
     11 H          -2.5111   -0.2351    7.6456 H       1  UNL1        0.0000
     12 H          -3.9988    0.6485    7.3852 H       1  UNL1        0.0000
     13 H          -3.4076    0.3920    9.0132 H       1  UNL1        0.0000
     14 H          -3.8324    3.2630    9.4134 H       1  UNL1        0.0000
     15 H          -4.0292    3.8918    7.7937 H       1  UNL1        0.0000
     16 H          -2.7574    4.5117    8.8285 H       1  UNL1        0.0000
@<TRIPOS>BOND
     1     6     2    1
     2     7     2    1
     3     2     1    1
     4    12     5    1
     5    11     5    1
     6    15     4    1
     7     1     5    1
     8     1     4    1
     9     1     3    1
    10     5    13    1
    11     4    16    1
    12     4    14    1
    13     9     3    1
    14     3     8    1
    15     3    10    1
