@<TRIPOS>MOLECULE
2
 16 15 0 0 0
SMALL
GASTEIGER

@<TRIPOS>ATOM
      1 SI          3.0821    2.4136    6.7273 Si      1  UNL1        0.0000
      2 C           2.3238    1.8097    5.1064 C.3     1  UNL1        0.0000
      3 H           1.5848    1.0281    5.3396 H       1  UNL1        0.0000
      4 H           3.1090    1.3136    4.5103 H       1  UNL1        0.0000
      5 C           1.7179    2.5361    8.0682 C.3     1  UNL1        0.0000
      6 H           0.8587    3.0904    7.7016 H       1  UNL1        0.0000
      7 H           2.0798    3.0368    8.9602 H       1  UNL1        0.0000
      8 H           1.3711    1.5517    8.3659 H       1  UNL1        0.0000
      9 C           3.8346    4.1578    6.4524 C.3     1  UNL1        0.0000
     10 H           4.8165    4.0889    5.9956 H       1  UNL1        0.0000
     11 H           3.9500    4.7000    7.3856 H       1  UNL1        0.0000
     12 H           3.2000    4.7552    5.7933 H       1  UNL1        0.0000
     13 C           4.4804    1.2993    7.4245 C.3     1  UNL1        0.0000
     14 H           4.1126    0.3075    7.6694 H       1  UNL1        0.0000
     15 H           4.9158    1.7195    8.3261 H       1  UNL1        0.0000
     16 H           5.2791    1.1817    6.6983 H       1  UNL1        0.0000
@<TRIPOS>BOND
     1     4     2    1
     2     2     3    1
     3     2     1    1
     4    12     9    1
     5    10     9    1
     6     9     1    1
     7     9    11    1
     8    16    13    1
     9     1    13    1
    10     1     5    1
    11    13    14    1
    12    13    15    1
    13     6     5    1
    14     5     8    1
    15     5     7    1
