@<TRIPOS>MOLECULE
2
 16 15 0 0 0
SMALL
GASTEIGER

@<TRIPOS>ATOM
      1 SI         -1.5804    4.8661    4.6170 Si      1  UNL1        0.0000
      2 C           0.2909    4.8476    4.8284 C.3     1  UNL1        0.0000
      3 H           0.5084    4.7897    5.9044 H       1  UNL1        0.0000
      4 H           0.6842    5.8243    4.4978 H       1  UNL1        0.0000
      5 C          -2.0226    4.9450    2.7501 C.3     1  UNL1        0.0000
      6 H          -1.8368    5.9364    2.3499 H       1  UNL1        0.0000
      7 H          -3.0689    4.7133    2.5749 H       1  UNL1        0.0000
      8 H          -1.4259    4.2369    2.1778 H       1  UNL1        0.0000
      9 C          -2.3250    3.2487    5.3410 C.3     1  UNL1        0.0000
     10 H          -2.7112    2.5997    4.5607 H       1  UNL1        0.0000
     11 H          -3.1435    3.4604    6.0210 H       1  UNL1        0.0000
     12 H          -1.5745    2.6921    5.8963 H       1  UNL1        0.0000
     13 C          -2.4897    6.3328    5.4553 C.3     1  UNL1        0.0000
     14 H          -2.3507    6.3122    6.5320 H       1  UNL1        0.0000
     15 H          -3.5584    6.3107    5.2616 H       1  UNL1        0.0000
     16 H          -2.1113    7.2852    5.0965 H       1  UNL1        0.0000
@<TRIPOS>BOND
     1     8     5    1
     2     6     5    1
     3     7     5    1
     4     5     1    1
     5     4     2    1
     6    10     9    1
     7     1     2    1
     8     1     9    1
     9     1    13    1
    10     2     3    1
    11    16    13    1
    12    15    13    1
    13     9    12    1
    14     9    11    1
    15    13    14    1
