@<TRIPOS>MOLECULE
1
 38 40 0 0 0
SMALL
GASTEIGER

@<TRIPOS>ATOM
      1 C          11.9986    6.7008    6.8061 C.3     1  UNL1        0.0000
      2 SI         13.1734    8.0533    7.4598 Si      1  UNL1        0.0000
      3 C          13.8015    9.3485    6.1907 C.3     1  UNL1        0.0000
      4 C          12.2224    9.0897    8.7654 C.3     1  UNL1        0.0000
      5 C          14.6284    7.1789    8.3477 C.3     1  UNL1        0.0000
      6 C          10.7805    7.3127    6.2455 C.ar    1  UNL1        0.0000
      7 C          10.8375    7.9508    4.9781 C.ar    1  UNL1        0.0000
      8 C          11.9612    7.8010    4.1281 C.ar    1  UNL1        0.0000
      9 C          12.0305    8.4167    2.9124 C.ar    1  UNL1        0.0000
     10 C          10.9712    9.2313    2.4665 C.ar    1  UNL1        0.0000
     11 C           9.8549    9.3678    3.2322 C.ar    1  UNL1        0.0000
     12 C           9.7384    8.7204    4.4894 C.ar    1  UNL1        0.0000
     13 C           8.5768    8.8081    5.2471 C.ar    1  UNL1        0.0000
     14 C           8.4527    8.1158    6.4483 C.ar    1  UNL1        0.0000
     15 C           7.2392    8.1712    7.1807 C.ar    1  UNL1        0.0000
     16 C           7.0919    7.5081    8.3588 C.ar    1  UNL1        0.0000
     17 C           8.1616    6.7471    8.8644 C.ar    1  UNL1        0.0000
     18 C           9.3452    6.6773    8.1905 C.ar    1  UNL1        0.0000
     19 C           9.5521    7.3549    6.9610 C.ar    1  UNL1        0.0000
     20 H          11.7279    6.1606    7.7256 H       1  UNL1        0.0000
     21 H          14.3866    8.9375    5.3752 H       1  UNL1        0.0000
     22 H          12.9689    9.8886    5.7519 H       1  UNL1        0.0000
     23 H          14.4257   10.0750    6.7017 H       1  UNL1        0.0000
     24 H          11.3317    9.5355    8.3320 H       1  UNL1        0.0000
     25 H          11.9025    8.4762    9.6022 H       1  UNL1        0.0000
     26 H          12.8320    9.8947    9.1636 H       1  UNL1        0.0000
     27 H          14.3894    6.1383    8.5573 H       1  UNL1        0.0000
     28 H          15.5494    7.2102    7.7755 H       1  UNL1        0.0000
     29 H          14.8301    7.6624    9.2976 H       1  UNL1        0.0000
     30 H          12.7728    7.1574    4.4673 H       1  UNL1        0.0000
     31 H          12.8956    8.2830    2.2788 H       1  UNL1        0.0000
     32 H          11.0471    9.7244    1.5088 H       1  UNL1        0.0000
     33 H           9.0213    9.9642    2.8899 H       1  UNL1        0.0000
     34 H           7.7522    9.4095    4.8927 H       1  UNL1        0.0000
     35 H           6.4265    8.7529    6.7692 H       1  UNL1        0.0000
     36 H           6.1629    7.5540    8.9077 H       1  UNL1        0.0000
     37 H           8.0379    6.2132    9.7952 H       1  UNL1        0.0000
     38 H          10.1329    6.0692    8.6125 H       1  UNL1        0.0000
@<TRIPOS>BOND
     1    32    10    1
     2    31     9    1
     3    10     9   ar
     4    10    11   ar
     5    33    11    1
     6     9     8   ar
     7    11    12   ar
     8     8    30    1
     9     8     7   ar
    10    12     7   ar
    11    12    13   ar
    12    34    13    1
    13     7     6   ar
    14    13    14   ar
    15    21     3    1
    16    22     3    1
    17     3    23    1
    18     3     2    1
    19     6     1    1
    20     6    19   ar
    21    14    19   ar
    22    14    15   ar
    23    35    15    1
    24     1     2    1
    25     1    20    1
    26    19    18   ar
    27    15    16   ar
    28     2     5    1
    29     2     4    1
    30    28     5    1
    31    18    38    1
    32    18    17   ar
    33    24     4    1
    34     5    27    1
    35     5    29    1
    36    16    17   ar
    37    16    36    1
    38     4    26    1
    39     4    25    1
    40    17    37    1
