@<TRIPOS>MOLECULE
1
 48 50 0 0 0
SMALL
GASTEIGER

@<TRIPOS>ATOM
      1 C           5.1569    4.1245    8.5986 C.3     1  UNL1        0.0000
      2 SI          6.3138    5.6194    8.5216 Si      1  UNL1        0.0000
      3 C           5.7989    6.7081   10.0145 C.3     1  UNL1        0.0000
      4 C           8.1866    5.2742    8.7490 C.3     1  UNL1        0.0000
      5 C           6.1296    6.7047    6.9486 C.3     1  UNL1        0.0000
      6 P           3.4566    2.2704   10.0946 P.3     1  UNL1        0.0000
      7 C           4.9583    1.7190    9.1812 C.ar    1  UNL1        0.0000
      8 C           5.6723    2.7508    8.5123 C.ar    1  UNL1        0.0000
      9 C           6.8205    2.3730    7.8022 C.ar    1  UNL1        0.0000
     10 C           7.2075    1.0486    7.7081 C.ar    1  UNL1        0.0000
     11 C           6.4662    0.0522    8.3217 C.ar    1  UNL1        0.0000
     12 C           5.3437    0.3941    9.0610 C.ar    1  UNL1        0.0000
     13 C           4.2479    2.9584   11.6202 C.ar    1  UNL1        0.0000
     14 C           3.3673    3.4201   12.5943 C.ar    1  UNL1        0.0000
     15 C           3.8402    3.9924   13.7595 C.ar    1  UNL1        0.0000
     16 C           5.2054    4.1221   13.9589 C.ar    1  UNL1        0.0000
     17 C           6.0886    3.6726   12.9918 C.ar    1  UNL1        0.0000
     18 C           5.6155    3.0948   11.8268 C.ar    1  UNL1        0.0000
     19 C           2.8884    0.7070   10.8747 C.ar    1  UNL1        0.0000
     20 C           1.6210    0.2248   10.5720 C.ar    1  UNL1        0.0000
     21 C           1.1464   -0.9244   11.1804 C.ar    1  UNL1        0.0000
     22 C           1.9312   -1.5961   12.1016 C.ar    1  UNL1        0.0000
     23 C           3.1922   -1.1143   12.4165 C.ar    1  UNL1        0.0000
     24 C           3.6687    0.0334   11.8119 C.ar    1  UNL1        0.0000
     25 H           4.7347    6.9224   10.0142 H       1  UNL1        0.0000
     26 H           6.0267    6.2129   10.9540 H       1  UNL1        0.0000
     27 H           6.3226    7.6583   10.0115 H       1  UNL1        0.0000
     28 H           8.3583    4.4315    9.4111 H       1  UNL1        0.0000
     29 H           8.6875    5.0628    7.8095 H       1  UNL1        0.0000
     30 H           8.6780    6.1380    9.1863 H       1  UNL1        0.0000
     31 H           6.6223    6.2788    6.0806 H       1  UNL1        0.0000
     32 H           5.0874    6.8735    6.6912 H       1  UNL1        0.0000
     33 H           6.5821    7.6761    7.1234 H       1  UNL1        0.0000
     34 H           7.4221    3.1309    7.3237 H       1  UNL1        0.0000
     35 H           8.0962    0.7923    7.1494 H       1  UNL1        0.0000
     36 H           6.7606   -0.9824    8.2335 H       1  UNL1        0.0000
     37 H           4.7650   -0.3815    9.5414 H       1  UNL1        0.0000
     38 H           2.3019    3.3168   12.4280 H       1  UNL1        0.0000
     39 H           3.1473    4.3425   14.5108 H       1  UNL1        0.0000
     40 H           5.5793    4.5740   14.8658 H       1  UNL1        0.0000
     41 H           7.1537    3.7730   13.1448 H       1  UNL1        0.0000
     42 H           6.3133    2.7464   11.0779 H       1  UNL1        0.0000
     43 H           1.0150    0.7450    9.8447 H       1  UNL1        0.0000
     44 H           0.1617   -1.2955   10.9358 H       1  UNL1        0.0000
     45 H           1.5623   -2.4935   12.5767 H       1  UNL1        0.0000
     46 H           3.8057   -1.6354   13.1376 H       1  UNL1        0.0000
     47 H           4.6503    0.4102   12.0651 H       1  UNL1        0.0000
     48 H           4.6524    4.2407    9.5698 H       1  UNL1        0.0000
@<TRIPOS>BOND
     1    31     5    1
     2    32     5    1
     3     5    33    1
     4     5     2    1
     5    35    10    1
     6    34     9    1
     7    10     9   ar
     8    10    11   ar
     9     9     8   ar
    10    29     4    1
    11    36    11    1
    12    11    12   ar
    13     8     1    1
    14     8     7   ar
    15     2     1    1
    16     2     4    1
    17     2     3    1
    18     1    48    1
    19     4    30    1
    20     4    28    1
    21    12     7   ar
    22    12    37    1
    23     7     6    1
    24    43    20    1
    25    27     3    1
    26    25     3    1
    27     3    26    1
    28     6    19    1
    29     6    13    1
    30    20    19   ar
    31    20    21   ar
    32    19    24   ar
    33    44    21    1
    34    42    18    1
    35    21    22   ar
    36    13    18   ar
    37    13    14   ar
    38    24    47    1
    39    24    23   ar
    40    18    17   ar
    41    22    23   ar
    42    22    45    1
    43    23    46    1
    44    38    14    1
    45    14    15   ar
    46    17    41    1
    47    17    16   ar
    48    15    16   ar
    49    15    39    1
    50    16    40    1
