@<TRIPOS>MOLECULE
2
 15 14 0 0 0
SMALL
GASTEIGER

@<TRIPOS>ATOM
      1 SI          8.0585   15.1441   14.8690 Si      1  UNL1        0.0000
      2 C           5.6007   14.9687   13.5738 C.3     1  UNL1        0.0000
      3 O           6.6662   15.4511   14.0383 O.3     1  UNL1        0.0000
      4 C           8.5623   16.8709   15.4778 C.3     1  UNL1        0.0000
      5 H           8.7305   17.5535   14.6496 H       1  UNL1        0.0000
      6 H           9.4826   16.8194   16.0498 H       1  UNL1        0.0000
      7 H           7.8015   17.3127   16.1154 H       1  UNL1        0.0000
      8 C           7.6823   13.9372   16.2935 C.3     1  UNL1        0.0000
      9 H           7.2052   14.4374   17.1320 H       1  UNL1        0.0000
     10 H           8.5855   13.4666   16.6684 H       1  UNL1        0.0000
     11 H           7.0096   13.1502   15.9627 H       1  UNL1        0.0000
     12 C           9.3178   14.3990   13.6487 C.3     1  UNL1        0.0000
     13 H           9.0225   13.4042   13.3249 H       1  UNL1        0.0000
     14 H          10.3007   14.3178   14.1017 H       1  UNL1        0.0000
     15 H           9.4185   15.0144   12.7583 H       1  UNL1        0.0000
@<TRIPOS>BOND
     1    15    12    1
     2    13    12    1
     3     2     3    1
     4    12    14    1
     5    12     1    1
     6     3     1    1
     7     5     4    1
     8     1     4    1
     9     1     8    1
    10     4     6    1
    11     4     7    1
    12    11     8    1
    13     8    10    1
    14     8     9    1
