@<TRIPOS>MOLECULE
2
 15 14 0 0 0
SMALL
GASTEIGER

@<TRIPOS>ATOM
      1 SI          2.8327   -3.4745    2.3396 Si      1  UNL1        0.0000
      2 C           1.1376   -1.3612    0.9130 C.1     1  UNL1        0.0000
      3 C           1.8155   -2.2088    1.4811 C.1     1  UNL1        0.0000
      4 C           3.5583   -2.7710    3.9636 C.3     1  UNL1        0.0000
      5 H           2.7700   -2.4452    4.6368 H       1  UNL1        0.0000
      6 H           4.1552   -3.5103    4.4907 H       1  UNL1        0.0000
      7 H           4.1959   -1.9134    3.7677 H       1  UNL1        0.0000
      8 C           1.7625   -5.0005    2.7712 C.3     1  UNL1        0.0000
      9 H           1.3367   -5.4475    1.8772 H       1  UNL1        0.0000
     10 H           2.3440   -5.7669    3.2764 H       1  UNL1        0.0000
     11 H           0.9379   -4.7301    3.4251 H       1  UNL1        0.0000
     12 C           4.2831   -4.0479    1.2333 C.3     1  UNL1        0.0000
     13 H           4.9334   -3.2155    0.9799 H       1  UNL1        0.0000
     14 H           4.8907   -4.8022    1.7259 H       1  UNL1        0.0000
     15 H           3.9210   -4.4747    0.3021 H       1  UNL1        0.0000
@<TRIPOS>BOND
     1    15    12    1
     2     2     3    3
     3    13    12    1
     4    12    14    1
     5    12     1    1
     6     3     1    1
     7     9     8    1
     8     1     8    1
     9     1     4    1
    10     8    10    1
    11     8    11    1
    12     7     4    1
    13     4     6    1
    14     4     5    1
