@<TRIPOS>MOLECULE
2
 15 14 0 0 0
SMALL
GASTEIGER

@<TRIPOS>ATOM
      1 SI         -2.8327    3.4745   -2.3396 Si      1  UNL1        0.0000
      2 C          -1.1375    1.3609   -0.9133 C.1     1  UNL1        0.0000
      3 C          -1.8157    2.2085   -1.4812 C.1     1  UNL1        0.0000
      4 C          -3.5583    2.7709   -3.9636 C.3     1  UNL1        0.0000
      5 H          -2.7700    2.4452   -4.6367 H       1  UNL1        0.0000
      6 H          -4.1552    3.5103   -4.4906 H       1  UNL1        0.0000
      7 H          -4.1959    1.9133   -3.7677 H       1  UNL1        0.0000
      8 C          -1.7625    5.0005   -2.7712 C.3     1  UNL1        0.0000
      9 H          -1.3367    5.4475   -1.8772 H       1  UNL1        0.0000
     10 H          -2.3440    5.7669   -3.2763 H       1  UNL1        0.0000
     11 H          -0.9379    4.7301   -3.4250 H       1  UNL1        0.0000
     12 C          -4.2831    4.0479   -1.2333 C.3     1  UNL1        0.0000
     13 H          -4.9336    3.2155   -0.9799 H       1  UNL1        0.0000
     14 H          -4.8907    4.8022   -1.7259 H       1  UNL1        0.0000
     15 H          -3.9211    4.4746   -0.3021 H       1  UNL1        0.0000
@<TRIPOS>BOND
     1     5     4    1
     2     6     4    1
     3     4     7    1
     4     4     1    1
     5    11     8    1
     6    10     8    1
     7     8     1    1
     8     8     9    1
     9     1     3    1
    10     1    12    1
    11    14    12    1
    12     3     2    3
    13    12    13    1
    14    12    15    1
