@<TRIPOS>MOLECULE
1
 15 14 0 0 0
SMALL
GASTEIGER

@<TRIPOS>ATOM
      1 C           6.4089    4.8665    4.7453 C.3     1  UNL1        0.1072
      2 N           7.4480    5.3345    4.4901 N.3     1  UNL1       -0.2219
      3 C           8.7241    5.8652    4.2237 C.3     1  UNL1        0.0290
      4 C           9.7254    4.7072    4.2220 C.3     1  UNL1       -0.0458
      5 H           9.7523    4.2314    5.1979 H       1  UNL1        0.0248
      6 H          10.7175    5.0856    3.9931 H       1  UNL1        0.0248
      7 H           9.4547    3.9644    3.4745 H       1  UNL1        0.0248
      8 C           9.0679    6.8825    5.3144 C.3     1  UNL1       -0.0458
      9 H           8.3490    7.6984    5.3178 H       1  UNL1        0.0248
     10 H          10.0571    7.2915    5.1301 H       1  UNL1        0.0248
     11 H           9.0626    6.4055    6.2900 H       1  UNL1        0.0248
     12 C           8.6570    6.5391    2.8478 C.3     1  UNL1       -0.0458
     13 H           7.9154    7.3352    2.8493 H       1  UNL1        0.0248
     14 H           8.3906    5.8164    2.0792 H       1  UNL1        0.0248
     15 H           9.6247    6.9675    2.6028 H       1  UNL1        0.0248
@<TRIPOS>BOND
     1    14    12    1
     2    15    12    1
     3    12    13    1
     4    12     3    1
     5     7     4    1
     6     6     4    1
     7     4     3    1
     8     4     5    1
     9     3     2    1
    10     3     8    1
    11     2     1    1
    12    10     8    1
    13     8     9    1
    14     8    11    1
