@<TRIPOS>MOLECULE
2
 16 15 0 0 0
SMALL
GASTEIGER

@<TRIPOS>ATOM
      1 SI          3.8837    8.6390   18.7973 Si      1  UNL1        0.0000
      2 C           3.3611   10.0292   17.6371 C.3     1  UNL1        0.0000
      3 H           2.8381    9.5935   16.7687 H       1  UNL1        0.0000
      4 H           4.2902   10.4567   17.2235 H       1  UNL1        0.0000
      5 C           2.3593    7.9573   19.7393 C.3     1  UNL1        0.0000
      6 H           1.7418    7.3355   19.0980 H       1  UNL1        0.0000
      7 H           1.7435    8.7712   20.1145 H       1  UNL1        0.0000
      8 H           2.6581    7.3477   20.5859 H       1  UNL1        0.0000
      9 C           4.7188    7.1285   17.9530 C.3     1  UNL1        0.0000
     10 H           5.6056    7.4263   17.4019 H       1  UNL1        0.0000
     11 H           4.0458    6.6455   17.2505 H       1  UNL1        0.0000
     12 H           5.0221    6.3810   18.6799 H       1  UNL1        0.0000
     13 C           5.1450    9.3482   20.0529 C.3     1  UNL1        0.0000
     14 H           4.8641   10.3544   20.3564 H       1  UNL1        0.0000
     15 H           6.1388    9.4025   19.6203 H       1  UNL1        0.0000
     16 H           5.2132    8.7366   20.9465 H       1  UNL1        0.0000
@<TRIPOS>BOND
     1     3     2    1
     2     4     2    1
     3    11     9    1
     4    10     9    1
     5     2     1    1
     6     9    12    1
     7     9     1    1
     8     1     5    1
     9     1    13    1
    10     6     5    1
    11    15    13    1
    12     5     7    1
    13     5     8    1
    14    13    14    1
    15    13    16    1
