@<TRIPOS>MOLECULE
2
 16 15 0 0 0
SMALL
GASTEIGER

@<TRIPOS>ATOM
      1 SI          0.4014   11.7645   21.7213 Si      1  UNL1        0.0000
      2 C           1.9710   11.8161   20.6742 C.3     1  UNL1        0.0000
      3 H           2.6368   11.0338   21.0768 H       1  UNL1        0.0000
      4 H           2.4592   12.7712   20.9368 H       1  UNL1        0.0000
      5 C          -0.4819   10.0623   21.6285 C.3     1  UNL1        0.0000
      6 H           0.1120    9.2917   22.1092 H       1  UNL1        0.0000
      7 H          -0.6549    9.7456   20.6046 H       1  UNL1        0.0000
      8 H          -1.4441   10.0910   22.1313 H       1  UNL1        0.0000
      9 C           0.7169   12.0589   23.5930 C.3     1  UNL1        0.0000
     10 H           1.2060   13.0138   23.7619 H       1  UNL1        0.0000
     11 H           1.3572   11.2878   24.0110 H       1  UNL1        0.0000
     12 H          -0.2075   12.0604   24.1634 H       1  UNL1        0.0000
     13 C          -0.8254   13.1298   21.1561 C.3     1  UNL1        0.0000
     14 H          -0.6184   13.4530   20.1387 H       1  UNL1        0.0000
     15 H          -0.7448   14.0053   21.7922 H       1  UNL1        0.0000
     16 H          -1.8582   12.7971   21.1976 H       1  UNL1        0.0000
@<TRIPOS>BOND
     1    14    13    1
     2     7     5    1
     3     2     4    1
     4     2     3    1
     5     2     1    1
     6    13    16    1
     7    13     1    1
     8    13    15    1
     9     5     1    1
    10     5     6    1
    11     5     8    1
    12     1     9    1
    13     9    10    1
    14     9    11    1
    15     9    12    1
