@<TRIPOS>MOLECULE
2
 16 15 0 0 0
SMALL
GASTEIGER

@<TRIPOS>ATOM
      1 SI         -1.2903    4.5024    5.5343 Si      1  UNL1        0.0000
      2 C          -1.1148    6.3202    5.0488 C.3     1  UNL1        0.0000
      3 H          -0.9093    6.9150    5.9549 H       1  UNL1        0.0000
      4 H          -2.0945    6.6674    4.6889 H       1  UNL1        0.0000
      5 C          -3.1080    3.9221    5.7330 C.3     1  UNL1        0.0000
      6 H          -3.6724    4.0934    4.8216 H       1  UNL1        0.0000
      7 H          -3.6112    4.4554    6.5337 H       1  UNL1        0.0000
      8 H          -3.1667    2.8618    5.9582 H       1  UNL1        0.0000
      9 C          -0.4070    4.0908    7.1868 C.3     1  UNL1        0.0000
     10 H          -0.8272    4.6550    8.0140 H       1  UNL1        0.0000
     11 H           0.6536    4.3161    7.1387 H       1  UNL1        0.0000
     12 H          -0.5035    3.0373    7.4301 H       1  UNL1        0.0000
     13 C          -0.5017    3.4123    4.1658 C.3     1  UNL1        0.0000
     14 H           0.5415    3.6837    4.0051 H       1  UNL1        0.0000
     15 H          -1.0248    3.5432    3.2223 H       1  UNL1        0.0000
     16 H          -0.5328    2.3562    4.4162 H       1  UNL1        0.0000
@<TRIPOS>BOND
     1    15    13    1
     2    14    13    1
     3    13    16    1
     4    13     1    1
     5     4     2    1
     6     6     5    1
     7     2     1    1
     8     2     3    1
     9     1     5    1
    10     1     9    1
    11     5     8    1
    12     5     7    1
    13    11     9    1
    14     9    12    1
    15     9    10    1
