@<TRIPOS>MOLECULE
2
 16 15 0 0 0
SMALL
GASTEIGER

@<TRIPOS>ATOM
      1 SI          7.1009    1.3228    9.1214 Si      1  UNL1        0.0000
      2 C           6.5467    1.7974    7.3837 C.3     1  UNL1        0.0000
      3 H           5.8676    1.0163    6.9985 H       1  UNL1        0.0000
      4 H           7.4388    1.7535    6.7361 H       1  UNL1        0.0000
      5 C           5.6566    1.5184   10.3726 C.3     1  UNL1        0.0000
      6 H           4.9390    0.7073   10.2922 H       1  UNL1        0.0000
      7 H           5.1293    2.4552   10.2092 H       1  UNL1        0.0000
      8 H           6.0237    1.5211   11.3938 H       1  UNL1        0.0000
      9 C           7.7175   -0.4881    9.3003 C.3     1  UNL1        0.0000
     10 H           8.5821   -0.6692    8.6692 H       1  UNL1        0.0000
     11 H           6.9499   -1.2004    9.0118 H       1  UNL1        0.0000
     12 H           8.0061   -0.7151   10.3222 H       1  UNL1        0.0000
     13 C           8.5214    2.4713    9.6870 C.3     1  UNL1        0.0000
     14 H           8.2280    3.5139    9.6083 H       1  UNL1        0.0000
     15 H           9.4052    2.3319    9.0729 H       1  UNL1        0.0000
     16 H           8.8069    2.2778   10.7164 H       1  UNL1        0.0000
@<TRIPOS>BOND
     1     4     2    1
     2     3     2    1
     3     2     1    1
     4    10     9    1
     5    11     9    1
     6    15    13    1
     7     1     9    1
     8     1    13    1
     9     1     5    1
    10     9    12    1
    11    14    13    1
    12    13    16    1
    13     7     5    1
    14     6     5    1
    15     5     8    1
