@<TRIPOS>MOLECULE
2
 16 15 0 0 0
SMALL
GASTEIGER

@<TRIPOS>ATOM
      1 SI         -1.6312    5.9520    0.6216 Si      1  UNL1        0.0000
      2 C           0.0588    6.0695    1.4507 C.3     1  UNL1        0.0000
      3 H           0.7243    6.6264    0.7707 H       1  UNL1        0.0000
      4 H           0.4715    5.0470    1.4871 H       1  UNL1        0.0000
      5 C          -3.0631    6.2604    1.8617 C.3     1  UNL1        0.0000
      6 H          -3.0585    5.5057    2.6424 H       1  UNL1        0.0000
      7 H          -4.0314    6.2208    1.3711 H       1  UNL1        0.0000
      8 H          -2.9795    7.2305    2.3460 H       1  UNL1        0.0000
      9 C          -1.8091    7.2500   -0.7910 C.3     1  UNL1        0.0000
     10 H          -1.7458    6.7736   -1.7639 H       1  UNL1        0.0000
     11 H          -1.0257    8.0015   -0.7525 H       1  UNL1        0.0000
     12 H          -2.7626    7.7682   -0.7470 H       1  UNL1        0.0000
     13 C          -1.9788    4.2352   -0.1564 C.3     1  UNL1        0.0000
     14 H          -2.9582    4.1950   -0.6234 H       1  UNL1        0.0000
     15 H          -1.9442    3.4549    0.5979 H       1  UNL1        0.0000
     16 H          -1.2426    3.9880   -0.9152 H       1  UNL1        0.0000
@<TRIPOS>BOND
     1    10     9    1
     2    16    13    1
     3     9    11    1
     4     9    12    1
     5     9     1    1
     6    14    13    1
     7    13    15    1
     8    13     1    1
     9     1     2    1
    10     1     5    1
    11     3     2    1
    12     7     5    1
    13     2     4    1
    14     5     8    1
    15     5     6    1
