@<TRIPOS>MOLECULE
2
 16 15 0 0 0
SMALL
GASTEIGER

@<TRIPOS>ATOM
      1 SI          7.5103    6.3932    8.3233 Si      1  UNL1        0.0000
      2 C           5.9419    5.3545    8.5186 C.3     1  UNL1        0.0000
      3 H           5.0709    6.0332    8.5032 H       1  UNL1        0.0000
      4 H           5.9495    4.8991    9.5210 H       1  UNL1        0.0000
      5 C           7.1330    8.0792    7.4900 C.3     1  UNL1        0.0000
      6 H           6.5638    8.7251    8.1515 H       1  UNL1        0.0000
      7 H           6.5539    7.9523    6.5807 H       1  UNL1        0.0000
      8 H           8.0462    8.6043    7.2274 H       1  UNL1        0.0000
      9 C           8.7704    5.4393    7.2197 C.3     1  UNL1        0.0000
     10 H           8.9826    5.9724    6.2983 H       1  UNL1        0.0000
     11 H           8.3797    4.4518    6.9539 H       1  UNL1        0.0000
     12 H           9.7164    5.2918    7.7295 H       1  UNL1        0.0000
     13 C           8.3956    6.7908    9.9779 C.3     1  UNL1        0.0000
     14 H           8.6841    5.8814   10.4960 H       1  UNL1        0.0000
     15 H           7.7532    7.3571   10.6452 H       1  UNL1        0.0000
     16 H           9.2965    7.3750    9.8166 H       1  UNL1        0.0000
@<TRIPOS>BOND
     1    10     9    1
     2     7     5    1
     3    11     9    1
     4     9    12    1
     5     9     1    1
     6     8     5    1
     7     5     6    1
     8     5     1    1
     9     1     2    1
    10     1    13    1
    11     3     2    1
    12     2     4    1
    13    16    13    1
    14    13    14    1
    15    13    15    1
