@<TRIPOS>MOLECULE
1
 4 3 0 0 0
SMALL
GASTEIGER

@<TRIPOS>ATOM
      1 C           1.6910   10.2595    5.0498 C.3     1  UNL1       -0.0681
      2 H           0.7745   10.3077    5.6571 H       1  UNL1        0.0227
      3 H           1.3698   10.0997    4.0104 H       1  UNL1        0.0227
      4 H           2.1636   11.2508    5.0902 H       1  UNL1        0.0227
@<TRIPOS>BOND
     1     3     1    1
     2     1     4    1
     3     1     2    1
