@<TRIPOS>MOLECULE
1
 4 3 0 0 0
SMALL
GASTEIGER

@<TRIPOS>ATOM
      1 C          -6.1848   -1.4139  -17.6779 C.3     1  UNL1       -0.0681
      2 H          -5.1730   -1.5267  -18.0931 H       1  UNL1        0.0227
      3 H          -6.3464   -0.3446  -17.4782 H       1  UNL1        0.0227
      4 H          -6.8896   -1.6996  -18.4741 H       1  UNL1        0.0227
@<TRIPOS>BOND
     1     4     1    1
     2     2     1    1
     3     1     3    1
