@<TRIPOS>MOLECULE
1
 4 3 0 0 0
SMALL
GASTEIGER

@<TRIPOS>ATOM
      1 C           1.5427    7.2844    5.5140 C.3     1  UNL1       -0.0681
      2 H           1.9503    6.2834    5.7130 H       1  UNL1        0.0227
      3 H           1.1244    7.2597    4.4963 H       1  UNL1        0.0227
      4 H           0.6914    7.4329    6.1964 H       1  UNL1        0.0227
@<TRIPOS>BOND
     1     3     1    1
     2     1     2    1
     3     1     4    1
