@<TRIPOS>MOLECULE
1
 4 3 0 0 0
SMALL
GASTEIGER

@<TRIPOS>ATOM
      1 C          -8.4313   -2.1652  -15.7736 C.3     1  UNL1       -0.0681
      2 H          -8.6617   -1.0907  -15.7464 H       1  UNL1        0.0227
      3 H          -8.8087   -2.6137  -14.8440 H       1  UNL1        0.0227
      4 H          -9.0190   -2.5951  -16.5996 H       1  UNL1        0.0227
@<TRIPOS>BOND
     1     4     1    1
     2     1     2    1
     3     1     3    1
