@<TRIPOS>MOLECULE
4
 10 10 0 0 0
SMALL
GASTEIGER

@<TRIPOS>ATOM
      1 C           9.7675    0.2063   11.2827 C.2     1  UNL1       -0.0654
      2 C          10.5549    1.3101   11.6765 C.2     1  UNL1       -0.0654
      3 C          11.5209    0.8662   12.5990 C.2     1  UNL1       -0.0763
      4 C          11.3265   -0.5249   12.7992 C.3     1  UNL1        0.0054
      5 C          10.2429   -0.9300   11.9682 C.2     1  UNL1       -0.0763
      6 H           9.0379    0.2065   10.4845 H       1  UNL1        0.0615
      7 H          10.5173    2.3003   11.2368 H       1  UNL1        0.0615
      8 H          12.3493    1.4490   12.9802 H       1  UNL1        0.0578
      9 H          12.0159   -1.1919   13.3049 H       1  UNL1        0.0394
     10 H           9.9675   -1.9575   11.7641 H       1  UNL1        0.0578
@<TRIPOS>BOND
     1     6     1    1
     2     7     2    1
     3     1     2    1
     4     1     5    2
     5     2     3    2
     6    10     5    1
     7     5     4    1
     8     3     4    1
     9     3     8    1
    10     4     9    1
