@<TRIPOS>MOLECULE
3
 28 27 0 0 0
SMALL
GASTEIGER

@<TRIPOS>ATOM
      1 SI          2.4344    2.0116   -2.4510 Si      1  UNL1        0.0000
      2 SI          1.5877    4.4356   -0.4527 Si      1  UNL1        0.0000
      3 C           2.9412    3.3365   -1.1964 C.3     1  UNL1        0.0000
      4 C           4.0287    1.0201   -2.8697 C.3     1  UNL1        0.0000
      5 C           1.1576    0.7456   -1.7938 C.3     1  UNL1        0.0000
      6 C           1.7346    2.7056   -4.0892 C.3     1  UNL1        0.0000
      7 C           1.1790    5.9478   -1.5522 C.3     1  UNL1        0.0000
      8 C           2.2329    5.1052    1.2359 C.3     1  UNL1        0.0000
      9 C          -0.0603    3.5450   -0.0793 C.3     1  UNL1        0.0000
     10 H           3.6039    4.0181   -1.7466 H       1  UNL1        0.0000
     11 H           3.8184    0.1645   -3.5044 H       1  UNL1        0.0000
     12 H           4.5243    0.6457   -1.9662 H       1  UNL1        0.0000
     13 H           4.7396    1.6463   -3.3995 H       1  UNL1        0.0000
     14 H           1.3394    0.4784   -0.7575 H       1  UNL1        0.0000
     15 H           0.1512    1.1417   -1.8547 H       1  UNL1        0.0000
     16 H           1.1829   -0.1697   -2.3773 H       1  UNL1        0.0000
     17 H           2.4210    3.4148   -4.5399 H       1  UNL1        0.0000
     18 H           1.5478    1.9210   -4.8158 H       1  UNL1        0.0000
     19 H           0.7972    3.2237   -3.9160 H       1  UNL1        0.0000
     20 H           2.0495    6.5810   -1.6919 H       1  UNL1        0.0000
     21 H           0.3933    6.5617   -1.1230 H       1  UNL1        0.0000
     22 H           0.8487    5.6293   -2.5351 H       1  UNL1        0.0000
     23 H           2.0415    4.3929    2.0377 H       1  UNL1        0.0000
     24 H           1.7387    6.0320    1.5131 H       1  UNL1        0.0000
     25 H           3.3052    5.3093    1.2024 H       1  UNL1        0.0000
     26 H           0.0932    2.6095    0.4468 H       1  UNL1        0.0000
     27 H          -0.5952    3.3251   -0.9960 H       1  UNL1        0.0000
     28 H          -0.7054    4.1659    0.5345 H       1  UNL1        0.0000
@<TRIPOS>BOND
     1    18     6    1
     2    17     6    1
     3     6    19    1
     4     6     1    1
     5    11     4    1
     6    13     4    1
     7     4     1    1
     8     4    12    1
     9    22     7    1
    10     1     5    1
    11     1     3    1
    12    16     5    1
    13    15     5    1
    14     5    14    1
    15    10     3    1
    16    20     7    1
    17     7    21    1
    18     7     2    1
    19     3     2    1
    20    27     9    1
    21     2     9    1
    22     2     8    1
    23     9    26    1
    24     9    28    1
    25    25     8    1
    26     8    24    1
    27     8    23    1
