@<TRIPOS>MOLECULE
4
 25 25 0 0 0
SMALL
GASTEIGER

@<TRIPOS>ATOM
      1 C           0.7036    4.2837    2.4366 C.2     1  UNL1       -0.0584
      2 C           1.6540    5.1018    3.1046 C.3     1  UNL1        0.0231
      3 C           2.5840    4.2451    3.7710 C.2     1  UNL1       -0.0584
      4 C           2.1877    2.8911    3.5257 C.2     1  UNL1       -0.0477
      5 C           1.0307    2.9247    2.6896 C.2     1  UNL1       -0.0477
      6 C          -0.3839    4.7236    1.4997 C.3     1  UNL1       -0.0424
      7 C           1.8447    6.5863    2.9377 C.3     1  UNL1       -0.0510
      8 C           3.9389    4.6793    4.2570 C.3     1  UNL1       -0.0424
      9 C           3.0244    1.6728    3.8194 C.3     1  UNL1       -0.0395
     10 C           0.4179    1.7545    1.9729 C.3     1  UNL1       -0.0395
     11 H          -1.3363    4.2667    1.7694 H       1  UNL1        0.0275
     12 H          -0.1431    4.4249    0.4771 H       1  UNL1        0.0275
     13 H          -0.5060    5.8040    1.5141 H       1  UNL1        0.0275
     14 H           2.1061    7.0697    3.8811 H       1  UNL1        0.0242
     15 H           0.9459    7.0603    2.5495 H       1  UNL1        0.0242
     16 H           2.6559    6.7811    2.2320 H       1  UNL1        0.0242
     17 H           3.9172    5.7028    4.6235 H       1  UNL1        0.0275
     18 H           4.6532    4.6366    3.4301 H       1  UNL1        0.0275
     19 H           4.3071    4.0342    5.0490 H       1  UNL1        0.0275
     20 H           2.4079    0.7940    4.0147 H       1  UNL1        0.0278
     21 H           3.6686    1.4451    2.9660 H       1  UNL1        0.0278
     22 H           3.6648    1.8419    4.6827 H       1  UNL1        0.0278
     23 H           0.7590    0.8115    2.3946 H       1  UNL1        0.0278
     24 H          -0.6694    1.7839    2.0153 H       1  UNL1        0.0278
     25 H           0.7115    1.7741    0.9204 H       1  UNL1        0.0278
@<TRIPOS>BOND
     1    12     6    1
     2    25    10    1
     3     6    13    1
     4     6    11    1
     5     6     1    1
     6    10    24    1
     7    10    23    1
     8    10     5    1
     9    16     7    1
    10     1     5    2
    11     1     2    1
    12    15     7    1
    13     5     4    1
    14     7     2    1
    15     7    14    1
    16    21     9    1
    17     2     3    1
    18    18     8    1
    19     4     3    2
    20     4     9    1
    21     3     8    1
    22     9    20    1
    23     9    22    1
    24     8    17    1
    25     8    19    1
