@<TRIPOS>MOLECULE
1
 25 25 0 0 0
SMALL
GASTEIGER

@<TRIPOS>ATOM
      1 C           3.7246    1.0690    2.1922 C.3     1  UNL1        0.0231
      2 C           4.4723    1.6039    3.3350 C.2     1  UNL1       -0.0584
      3 C           5.6075    0.8462    3.5184 C.2     1  UNL1       -0.0477
      4 C           5.6185   -0.2126    2.5542 C.2     1  UNL1       -0.0477
      5 C           4.4890   -0.1167    1.7702 C.2     1  UNL1       -0.0584
      6 C           2.2020    0.9834    2.3041 C.3     1  UNL1       -0.0510
      7 C           3.9625    2.7156    4.2066 C.3     1  UNL1       -0.0424
      8 C           6.6626    1.0222    4.5649 C.3     1  UNL1       -0.0395
      9 C           6.6924   -1.2495    2.4708 C.3     1  UNL1       -0.0395
     10 C           4.0130   -1.1163    0.7511 C.3     1  UNL1       -0.0424
     11 H           1.7446    0.5822    1.3999 H       1  UNL1        0.0242
     12 H           1.7511    1.9537    2.5163 H       1  UNL1        0.0242
     13 H           1.9453    0.3109    3.1280 H       1  UNL1        0.0242
     14 H           4.7435    3.0790    4.8707 H       1  UNL1        0.0275
     15 H           3.1399    2.3576    4.8302 H       1  UNL1        0.0275
     16 H           3.5964    3.5600    3.6163 H       1  UNL1        0.0275
     17 H           7.6572    0.8487    4.1546 H       1  UNL1        0.0278
     18 H           6.5139    0.3062    5.3749 H       1  UNL1        0.0278
     19 H           6.6372    2.0222    4.9936 H       1  UNL1        0.0278
     20 H           7.6813   -0.7914    2.4379 H       1  UNL1        0.0278
     21 H           6.5707   -1.8697    1.5863 H       1  UNL1        0.0278
     22 H           6.6599   -1.8985    3.3465 H       1  UNL1        0.0278
     23 H           4.8465   -1.5280    0.1809 H       1  UNL1        0.0275
     24 H           3.3045   -0.6739    0.0476 H       1  UNL1        0.0275
     25 H           3.5149   -1.9510    1.2501 H       1  UNL1        0.0275
@<TRIPOS>BOND
     1    24    10    1
     2    23    10    1
     3    10    25    1
     4    10     5    1
     5    11     6    1
     6    21     9    1
     7     5     1    1
     8     5     4    2
     9     1     6    1
    10     1     2    1
    11     6    12    1
    12     6    13    1
    13    20     9    1
    14     9     4    1
    15     9    22    1
    16     4     3    1
    17     2     3    2
    18     2     7    1
    19     3     8    1
    20    16     7    1
    21    17     8    1
    22     7    15    1
    23     7    14    1
    24     8    19    1
    25     8    18    1
