@<TRIPOS>MOLECULE
1
 4 3 0 0 0
SMALL
GASTEIGER

@<TRIPOS>ATOM
      1 C           2.5883    3.0364    0.8722 C.3     1  UNL1       -0.0681
      2 H           3.6904    3.0364    0.9485 H       1  UNL1        0.0227
      3 H           2.3065    3.9183    0.2760 H       1  UNL1        0.0227
      4 H           2.3065    2.1545    0.2760 H       1  UNL1        0.0227
@<TRIPOS>BOND
     1     3     1    1
     2     4     1    1
     3     1     2    1
