@<TRIPOS>MOLECULE
1
 4 3 0 0 0
SMALL
GASTEIGER

@<TRIPOS>ATOM
      1 C          -0.4169    3.0364    2.0737 C.3     1  UNL1       -0.0681
      2 H          -1.1611    3.0364    2.8904 H       1  UNL1        0.0227
      3 H          -0.6249    3.9182    1.4480 H       1  UNL1        0.0227
      4 H          -0.6249    2.1546    1.4480 H       1  UNL1        0.0227
@<TRIPOS>BOND
     1     3     1    1
     2     4     1    1
     3     1     2    1
