@<TRIPOS>MOLECULE
1
 16 15 0 0 0
SMALL
GASTEIGER

@<TRIPOS>ATOM
      1 C           7.1499   -1.0932   12.3373 C.3     1  UNL1        0.0000
      2 SI          6.0985   -0.6160   10.8277 Si      1  UNL1        0.0000
      3 C           5.3163   -2.1869   10.0610 C.3     1  UNL1        0.0000
      4 C           7.2128    0.1894    9.4949 C.3     1  UNL1        0.0000
      5 C           4.6536    0.5942   11.1906 C.3     1  UNL1        0.0000
      6 H           8.1586   -1.3090   11.9718 H       1  UNL1        0.0000
      7 H           6.7687   -2.0266   12.7567 H       1  UNL1        0.0000
      8 H           4.6570   -2.6853   10.7654 H       1  UNL1        0.0000
      9 H           4.7308   -1.9461    9.1794 H       1  UNL1        0.0000
     10 H           6.0767   -2.9015    9.7630 H       1  UNL1        0.0000
     11 H           7.9977   -0.4911    9.1806 H       1  UNL1        0.0000
     12 H           6.6402    0.4562    8.6115 H       1  UNL1        0.0000
     13 H           7.6925    1.0909    9.8621 H       1  UNL1        0.0000
     14 H           4.9085    1.2864   11.9899 H       1  UNL1        0.0000
     15 H           4.3962    1.1785   10.3114 H       1  UNL1        0.0000
     16 H           3.7575    0.0628   11.4962 H       1  UNL1        0.0000
@<TRIPOS>BOND
     1    12     4    1
     2     9     3    1
     3    11     4    1
     4     4    13    1
     5     4     2    1
     6    10     3    1
     7     3     8    1
     8     3     2    1
     9    15     5    1
    10     2     5    1
    11     2     1    1
    12     5    16    1
    13     5    14    1
    14     6     1    1
    15     1     7    1
