@<TRIPOS>MOLECULE
1
 16 15 0 0 0
SMALL
GASTEIGER

@<TRIPOS>ATOM
      1 C           9.2176   -0.3629   14.2805 C.3     1  UNL1        0.0000
      2 SI         10.6802    0.6463   13.5936 Si      1  UNL1        0.0000
      3 C          10.6244    0.7153   11.6851 C.3     1  UNL1        0.0000
      4 C          10.7032    2.4066   14.3360 C.3     1  UNL1        0.0000
      5 C          12.2979   -0.2435   14.1091 C.3     1  UNL1        0.0000
      6 H           9.3264   -0.4417   15.3655 H       1  UNL1        0.0000
      7 H           9.2741   -1.3780   13.8786 H       1  UNL1        0.0000
      8 H           9.6302    0.9822   11.3430 H       1  UNL1        0.0000
      9 H          11.3256    1.4449   11.2916 H       1  UNL1        0.0000
     10 H          10.8759   -0.2454   11.2468 H       1  UNL1        0.0000
     11 H          10.9837    2.3918   15.3846 H       1  UNL1        0.0000
     12 H          11.4102    3.0485   13.8193 H       1  UNL1        0.0000
     13 H           9.7200    2.8600   14.2652 H       1  UNL1        0.0000
     14 H          12.3433   -1.2517   13.7094 H       1  UNL1        0.0000
     15 H          13.1679    0.2916   13.7428 H       1  UNL1        0.0000
     16 H          12.3898   -0.3150   15.1883 H       1  UNL1        0.0000
@<TRIPOS>BOND
     1    10     3    1
     2     9     3    1
     3     8     3    1
     4     3     2    1
     5     2     5    1
     6     2     1    1
     7     2     4    1
     8    14     5    1
     9    15     5    1
    10    12     4    1
    11     7     1    1
    12     5    16    1
    13    13     4    1
    14     1     6    1
    15     4    11    1
