@<TRIPOS>MOLECULE
1
 16 15 0 0 0
SMALL
GASTEIGER

@<TRIPOS>ATOM
      1 C           7.2805    1.1374   15.8822 C.3     1  UNL1        0.0000
      2 SI          6.2643    2.7184   16.1675 Si      1  UNL1        0.0000
      3 C           4.8213    2.9881   14.9308 C.3     1  UNL1        0.0000
      4 C           7.4180    4.2432   16.0604 C.3     1  UNL1        0.0000
      5 C           5.4912    2.6909   17.9190 C.3     1  UNL1        0.0000
      6 H           6.9317    0.3593   16.5644 H       1  UNL1        0.0000
      7 H           8.3128    1.3591   16.1702 H       1  UNL1        0.0000
      8 H           4.6117    4.0446   14.7886 H       1  UNL1        0.0000
      9 H           5.0529    2.5585   13.9588 H       1  UNL1        0.0000
     10 H           3.9049    2.5228   15.2809 H       1  UNL1        0.0000
     11 H           8.1871    4.2037   16.8251 H       1  UNL1        0.0000
     12 H           7.9199    4.3015   15.0999 H       1  UNL1        0.0000
     13 H           6.8659    5.1676   16.2019 H       1  UNL1        0.0000
     14 H           6.2540    2.6004   18.6859 H       1  UNL1        0.0000
     15 H           4.9334    3.6003   18.1186 H       1  UNL1        0.0000
     16 H           4.8080    1.8553   18.0373 H       1  UNL1        0.0000
@<TRIPOS>BOND
     1     9     3    1
     2     8     3    1
     3     3    10    1
     4     3     2    1
     5    12     4    1
     6     1     2    1
     7     1     7    1
     8     1     6    1
     9     4     2    1
    10     4    13    1
    11     4    11    1
    12     2     5    1
    13     5    16    1
    14     5    15    1
    15     5    14    1
