@<TRIPOS>MOLECULE
1
 16 15 0 0 0
SMALL
GASTEIGER

@<TRIPOS>ATOM
      1 C           5.4798   -0.4945   14.5017 C.3     1  UNL1        0.0000
      2 SI          5.5470   -2.1119   15.5178 Si      1  UNL1        0.0000
      3 C           7.2940   -2.8124   15.8822 C.3     1  UNL1        0.0000
      4 C           4.6929   -1.8325   17.2091 C.3     1  UNL1        0.0000
      5 C           4.5792   -3.4801   14.5908 C.3     1  UNL1        0.0000
      6 H           4.9225    0.2342   15.0964 H       1  UNL1        0.0000
      7 H           4.8677   -0.6973   13.6189 H       1  UNL1        0.0000
      8 H           7.2208   -3.7297   16.4603 H       1  UNL1        0.0000
      9 H           7.8337   -3.0472   14.9694 H       1  UNL1        0.0000
     10 H           7.8985   -2.1157   16.4556 H       1  UNL1        0.0000
     11 H           5.1992   -1.0708   17.7944 H       1  UNL1        0.0000
     12 H           3.6629   -1.5138   17.0817 H       1  UNL1        0.0000
     13 H           4.6821   -2.7440   17.7987 H       1  UNL1        0.0000
     14 H           3.5486   -3.1851   14.4182 H       1  UNL1        0.0000
     15 H           5.0215   -3.6992   13.6235 H       1  UNL1        0.0000
     16 H           4.5635   -4.4044   15.1600 H       1  UNL1        0.0000
@<TRIPOS>BOND
     1     7     1    1
     2    15     5    1
     3    14     5    1
     4     1     6    1
     5     1     2    1
     6     5    16    1
     7     5     2    1
     8     9     3    1
     9     2     3    1
    10     2     4    1
    11     3    10    1
    12     3     8    1
    13    12     4    1
    14     4    11    1
    15     4    13    1
