@<TRIPOS>MOLECULE
1
 27 27 0 0 0
SMALL
GASTEIGER

@<TRIPOS>ATOM
      1 C           1.1667   11.0702    8.4884 C.1     1  UNL1        0.0000
      2 C           1.2190   11.6806    9.5366 C.1     1  UNL1        0.0000
      3 C           1.2741   12.4323   10.7289 C.ar    1  UNL1        0.0000
      4 C           0.6555   11.9694   11.8952 C.ar    1  UNL1        0.0000
      5 H           0.1241   11.0276   11.8704 H       1  UNL1        0.0000
      6 C           0.7240   12.6998   13.0599 C.ar    1  UNL1        0.0000
      7 H           0.2465   12.3405   13.9610 H       1  UNL1        0.0000
      8 C           1.4107   13.9171   13.0919 C.ar    1  UNL1        0.0000
      9 C           2.0283   14.3835   11.9274 C.ar    1  UNL1        0.0000
     10 H           2.5588   15.3256   11.9535 H       1  UNL1        0.0000
     11 C           1.9603   13.6518   10.7638 C.ar    1  UNL1        0.0000
     12 H           2.4360   14.0104    9.8610 H       1  UNL1        0.0000
     13 C           1.4731   14.6691   14.2851 C.1     1  UNL1        0.0000
     14 C           1.5221   15.3147   15.3084 C.1     1  UNL1        0.0000
     15 SI          1.5867   16.3084   16.8686 Si      1  UNL1        0.0000
     16 C          -0.1207   17.1071   17.1632 C.3     1  UNL1        0.0000
     17 H          -0.3941   17.7621   16.3413 H       1  UNL1        0.0000
     18 H          -0.1325   17.6987   18.0744 H       1  UNL1        0.0000
     19 H          -0.8962   16.3519   17.2508 H       1  UNL1        0.0000
     20 C           2.9195   17.6597   16.6802 C.3     1  UNL1        0.0000
     21 H           3.8971   17.2237   16.4972 H       1  UNL1        0.0000
     22 H           2.9945   18.2737   17.5735 H       1  UNL1        0.0000
     23 H           2.6937   18.3179   15.8465 H       1  UNL1        0.0000
     24 C           2.0234   15.1492   18.3194 C.3     1  UNL1        0.0000
     25 H           1.2851   14.3598   18.4250 H       1  UNL1        0.0000
     26 H           2.0658   15.6883   19.2617 H       1  UNL1        0.0000
     27 H           2.9886   14.6754   18.1671 H       1  UNL1        0.0000
@<TRIPOS>BOND
     1     1     2    3
     2     2     3    1
     3    12    11    1
     4     3    11   ar
     5     3     4   ar
     6    11     9   ar
     7     5     4    1
     8     4     6   ar
     9     9    10    1
    10     9     8   ar
    11     6     8   ar
    12     6     7    1
    13     8    13    1
    14    13    14    3
    15    14    15    1
    16    23    20    1
    17    17    16    1
    18    21    20    1
    19    20    15    1
    20    20    22    1
    21    15    16    1
    22    15    24    1
    23    16    19    1
    24    16    18    1
    25    27    24    1
    26    24    25    1
    27    24    26    1
