@<TRIPOS>MOLECULE
2
 24 25 0 0 0
SMALL
GASTEIGER

@<TRIPOS>ATOM
      1 C           7.5524   15.8278    8.7202 C.2     1  UNL1       -0.0013
      2 C           7.0525   15.4247    9.9081 C.2     1  UNL1       -0.0013
      3 C           6.5590   16.2077   11.0396 C.ar    1  UNL1       -0.0167
      4 C           6.1055   17.5187   10.8573 C.ar    1  UNL1       -0.0540
      5 H           6.1396   17.9555    9.8703 H       1  UNL1        0.0624
      6 C           5.6027   18.2442   11.9188 C.ar    1  UNL1       -0.0612
      7 H           5.2536   19.2540   11.7585 H       1  UNL1        0.0618
      8 C           5.5447   17.6852   13.1856 C.ar    1  UNL1       -0.0617
      9 H           5.1553   18.2573   14.0146 H       1  UNL1        0.0618
     10 C           5.9802   16.3845   13.3792 C.ar    1  UNL1       -0.0612
     11 H           5.9275   15.9387   14.3622 H       1  UNL1        0.0618
     12 C           6.4723   15.6502   12.3179 C.ar    1  UNL1       -0.0540
     13 H           6.7958   14.6308   12.4696 H       1  UNL1        0.0624
     14 C           8.0353   17.1007    8.2195 C.ar    1  UNL1       -0.0167
     15 C           8.8383   17.9281    9.0136 C.ar    1  UNL1       -0.0540
     16 H           9.0652   17.6254   10.0267 H       1  UNL1        0.0624
     17 C           9.3371   19.1124    8.5100 C.ar    1  UNL1       -0.0612
     18 H           9.9576   19.7404    9.1335 H       1  UNL1        0.0618
     19 C           9.0403   19.5022    7.2133 C.ar    1  UNL1       -0.0617
     20 H           9.4267   20.4333    6.8256 H       1  UNL1        0.0618
     21 C           8.2510   18.6890    6.4150 C.ar    1  UNL1       -0.0612
     22 H           8.0232   18.9861    5.4015 H       1  UNL1        0.0618
     23 C           7.7637   17.4937    6.9048 C.ar    1  UNL1       -0.0540
     24 H           7.1603   16.8482    6.2798 H       1  UNL1        0.0624
@<TRIPOS>BOND
     1    22    21    1
     2    24    23    1
     3    21    23   ar
     4    21    19   ar
     5    20    19    1
     6    23    14   ar
     7    19    17   ar
     8    14     1    1
     9    14    15   ar
    10    17    15   ar
    11    17    18    1
    12     1     2    2
    13    15    16    1
    14     5     4    1
    15     2     3    1
    16     4     3   ar
    17     4     6   ar
    18     3    12   ar
    19     7     6    1
    20     6     8   ar
    21    12    13    1
    22    12    10   ar
    23     8    10   ar
    24     8     9    1
    25    10    11    1
