@<TRIPOS>MOLECULE
1
 11 11 0 0 0
SMALL
GASTEIGER

@<TRIPOS>ATOM
      1 C           3.8229   11.1545    4.3323 C.ar    1  UNL1       -0.0179
      2 C           2.6236   10.4494    4.3578 C.ar    1  UNL1       -0.0540
      3 C           2.0072   10.0200    3.1938 C.ar    1  UNL1       -0.0612
      4 C           2.5795   10.2905    1.9634 C.ar    1  UNL1       -0.0617
      5 C           3.7696   10.9938    1.9119 C.ar    1  UNL1       -0.0612
      6 C           4.3771   11.4189    3.0828 C.ar    1  UNL1       -0.0540
      7 H           2.1571   10.2289    5.3088 H       1  UNL1        0.0624
      8 H           1.0764    9.4713    3.2468 H       1  UNL1        0.0618
      9 H           2.1020    9.9576    1.0529 H       1  UNL1        0.0618
     10 H           4.2271   11.2131    0.9559 H       1  UNL1        0.0618
     11 H           5.3058   11.9718    3.0204 H       1  UNL1        0.0624
@<TRIPOS>BOND
     1    10     5    1
     2     9     4    1
     3     5     4   ar
     4     5     6   ar
     5     4     3   ar
     6    11     6    1
     7     6     1   ar
     8     3     8    1
     9     3     2   ar
    10     1     2   ar
    11     2     7    1
