@<TRIPOS>MOLECULE
4
 56 57 0 0 0
SMALL
GASTEIGER

@<TRIPOS>ATOM
      1 SI          5.9127   15.5487    3.9901 Si      1  UNL1        0.0000
      2 SI          3.8220   16.1989    3.0928 Si      1  UNL1        0.0000
      3 N           5.5215   14.1756    4.9838 N.3     1  UNL1        0.0000
      4 C           5.1866   13.1155    5.3790 C.3     1  UNL1        0.0000
      5 C           6.8486   16.6686    5.2263 C.3     1  UNL1        0.0000
      6 C           7.2100   14.8307    2.7756 C.3     1  UNL1        0.0000
      7 C           3.4664   14.8523    1.7691 C.3     1  UNL1        0.0000
      8 C           2.7904   16.3232    4.6979 C.ar    1  UNL1        0.0000
      9 C           2.9070   17.4733    5.4910 C.ar    1  UNL1        0.0000
     10 C           2.2334   17.5620    6.7013 C.ar    1  UNL1        0.0000
     11 C           1.4361   16.5297    7.1645 C.ar    1  UNL1        0.0000
     12 C           1.3214   15.3949    6.3766 C.ar    1  UNL1        0.0000
     13 C           1.9842   15.2784    5.1653 C.ar    1  UNL1        0.0000
     14 C           3.7239   18.6577    5.0618 C.3     1  UNL1        0.0000
     15 C           0.7090   16.6237    8.4713 C.3     1  UNL1        0.0000
     16 C           1.8104   14.0111    4.3883 C.3     1  UNL1        0.0000
     17 C           3.5179   17.7981    2.0730 C.ar    1  UNL1        0.0000
     18 C           2.2165   18.2935    1.9175 C.ar    1  UNL1        0.0000
     19 C           1.9911   19.4583    1.1953 C.ar    1  UNL1        0.0000
     20 C           3.0257   20.1591    0.6012 C.ar    1  UNL1        0.0000
     21 C           4.3089   19.6493    0.7293 C.ar    1  UNL1        0.0000
     22 C           4.5599   18.4899    1.4458 C.ar    1  UNL1        0.0000
     23 C           1.0243   17.6086    2.5173 C.3     1  UNL1        0.0000
     24 C           2.7812   21.4223   -0.1670 C.3     1  UNL1        0.0000
     25 C           5.9742   17.9959    1.5141 C.3     1  UNL1        0.0000
     26 H           7.7258   16.1642    5.6233 H       1  UNL1        0.0000
     27 H           7.1876   17.5946    4.7711 H       1  UNL1        0.0000
     28 H           6.2136   16.9269    6.0680 H       1  UNL1        0.0000
     29 H           7.9174   14.1923    3.2981 H       1  UNL1        0.0000
     30 H           6.7356   14.2267    2.0081 H       1  UNL1        0.0000
     31 H           7.7810   15.6084    2.2789 H       1  UNL1        0.0000
     32 H           2.4673   14.9162    1.3495 H       1  UNL1        0.0000
     33 H           4.1588   14.9816    0.9403 H       1  UNL1        0.0000
     34 H           3.6028   13.8494    2.1578 H       1  UNL1        0.0000
     35 H           2.3360   18.4594    7.2970 H       1  UNL1        0.0000
     36 H           0.7067   14.5766    6.7222 H       1  UNL1        0.0000
     37 H           3.8934   19.3243    5.9049 H       1  UNL1        0.0000
     38 H           4.6863   18.3579    4.6578 H       1  UNL1        0.0000
     39 H           3.2022   19.2188    4.2876 H       1  UNL1        0.0000
     40 H           0.9987   17.5184    9.0171 H       1  UNL1        0.0000
     41 H          -0.3674   16.6547    8.3026 H       1  UNL1        0.0000
     42 H           0.9239   15.7510    9.0857 H       1  UNL1        0.0000
     43 H           1.1020   13.3543    4.8861 H       1  UNL1        0.0000
     44 H           1.4435   14.2084    3.3854 H       1  UNL1        0.0000
     45 H           2.7568   13.4769    4.3143 H       1  UNL1        0.0000
     46 H           0.9787   19.8257    1.0936 H       1  UNL1        0.0000
     47 H           5.1297   20.1697    0.2544 H       1  UNL1        0.0000
     48 H           0.9638   17.8082    3.5860 H       1  UNL1        0.0000
     49 H           0.1088   17.9691    2.0528 H       1  UNL1        0.0000
     50 H           1.0761   16.5317    2.3874 H       1  UNL1        0.0000
     51 H           3.2926   22.2587    0.3090 H       1  UNL1        0.0000
     52 H           3.1667   21.3317   -1.1818 H       1  UNL1        0.0000
     53 H           1.7191   21.6491   -0.2167 H       1  UNL1        0.0000
     54 H           6.0319   16.9584    1.1963 H       1  UNL1        0.0000
     55 H           6.6162   18.5910    0.8682 H       1  UNL1        0.0000
     56 H           6.3595   18.0641    2.5295 H       1  UNL1        0.0000
@<TRIPOS>BOND
     1    52    24    1
     2    53    24    1
     3    24    51    1
     4    24    20    1
     5    47    21    1
     6    20    21   ar
     7    20    19   ar
     8    21    22   ar
     9    55    25    1
    10    33     7    1
    11    46    19    1
    12    19    18   ar
    13    54    25    1
    14    32     7    1
    15    22    25    1
    16    22    17   ar
    17    25    56    1
    18     7    34    1
    19     7     2    1
    20    18    17   ar
    21    18    23    1
    22    30     6    1
    23    49    23    1
    24    17     2    1
    25    31     6    1
    26    50    23    1
    27    23    48    1
    28     6    29    1
    29     6     1    1
    30     2     1    1
    31     2     8    1
    32    44    16    1
    33     1     3    1
    34     1     5    1
    35    39    14    1
    36    45    16    1
    37    16    43    1
    38    16    13    1
    39    38    14    1
    40     8    13   ar
    41     8     9   ar
    42    27     5    1
    43     3     4    1
    44    14     9    1
    45    14    37    1
    46    13    12   ar
    47     5    26    1
    48     5    28    1
    49     9    10   ar
    50    12    36    1
    51    12    11   ar
    52    10    11   ar
    53    10    35    1
    54    11    15    1
    55    41    15    1
    56    15    40    1
    57    15    42    1
