@<TRIPOS>MOLECULE
3
 28 27 0 0 0
SMALL
GASTEIGER

@<TRIPOS>ATOM
      1 SI          7.4721    1.4280    3.3293 Si      1  UNL1        0.0000
      2 SI          7.8345   -1.6516    3.6298 Si      1  UNL1        0.0000
      3 C           7.8051    0.0036    4.4569 C.3     1  UNL1        0.0000
      4 C           7.1549    3.2255    3.8807 C.3     1  UNL1        0.0000
      5 H           6.1814    3.3319    4.3366 H       1  UNL1        0.0000
      6 H           7.1731    3.8712    3.0081 H       1  UNL1        0.0000
      7 H           7.9044    3.6018    4.5644 H       1  UNL1        0.0000
      8 C           5.7883    0.8705    2.6682 C.3     1  UNL1        0.0000
      9 H           5.8691    0.0717    1.9450 H       1  UNL1        0.0000
     10 H           5.2245    1.6768    2.2140 H       1  UNL1        0.0000
     11 H           5.2015    0.5077    3.5188 H       1  UNL1        0.0000
     12 C           8.7752    1.6980    1.9474 C.3     1  UNL1        0.0000
     13 H           9.6008    2.2947    2.3216 H       1  UNL1        0.0000
     14 H           8.3515    2.2268    1.0986 H       1  UNL1        0.0000
     15 H           9.1877    0.7667    1.5844 H       1  UNL1        0.0000
     16 C           8.9262   -2.9505    4.5116 C.3     1  UNL1        0.0000
     17 H           9.9547   -2.8466    4.1849 H       1  UNL1        0.0000
     18 H           8.6088   -3.9589    4.2677 H       1  UNL1        0.0000
     19 H           8.9183   -2.8551    5.5878 H       1  UNL1        0.0000
     20 C           5.9898   -2.1305    3.6105 C.3     1  UNL1        0.0000
     21 H           5.4471   -1.5753    4.3801 H       1  UNL1        0.0000
     22 H           5.8174   -3.1813    3.8139 H       1  UNL1        0.0000
     23 H           5.5266   -1.9117    2.6574 H       1  UNL1        0.0000
     24 C           8.3938   -1.8100    1.8027 C.3     1  UNL1        0.0000
     25 H           7.8414   -1.1446    1.1491 H       1  UNL1        0.0000
     26 H           8.2434   -2.8234    1.4407 H       1  UNL1        0.0000
     27 H           9.4481   -1.5824    1.6916 H       1  UNL1        0.0000
     28 H           8.3892    0.1452    5.3402 H       1  UNL1        0.0000
@<TRIPOS>BOND
     1    14    12    1
     2    25    24    1
     3    26    24    1
     4    15    12    1
     5    27    24    1
     6    24     2    1
     7     9     8    1
     8    12    13    1
     9    12     1    1
    10    10     8    1
    11    23    20    1
    12     8     1    1
    13     8    11    1
    14     6     4    1
    15     1     4    1
    16     1     3    1
    17    20     2    1
    18    20    22    1
    19    20    21    1
    20     2     3    1
    21     2    16    1
    22     4     5    1
    23     4     7    1
    24    17    16    1
    25    18    16    1
    26     3    28    1
    27    16    19    1
