@<TRIPOS>MOLECULE
2
 16 15 0 0 0
SMALL
GASTEIGER

@<TRIPOS>ATOM
      1 SI         -2.1850    0.0015    4.8853 Si      1  UNL1        0.0000
      2 C          -0.7680    0.8661    3.9905 C.3     1  UNL1        0.0000
      3 C          -3.9059    0.6749    4.3882 C.3     1  UNL1        0.0000
      4 C          -2.1898   -1.8688    4.4584 C.3     1  UNL1        0.0000
      5 C          -1.9988    0.1506    6.7789 C.3     1  UNL1        0.0000
      6 H          -1.0522    1.0191    2.9381 H       1  UNL1        0.0000
      7 H           0.0845    0.1719    3.9739 H       1  UNL1        0.0000
      8 H          -4.0267    1.7204    4.6497 H       1  UNL1        0.0000
      9 H          -4.6943    0.1209    4.8892 H       1  UNL1        0.0000
     10 H          -4.0740    0.5817    3.3195 H       1  UNL1        0.0000
     11 H          -2.3008   -2.0330    3.3906 H       1  UNL1        0.0000
     12 H          -3.0033   -2.3884    4.9560 H       1  UNL1        0.0000
     13 H          -1.2626   -2.3430    4.7666 H       1  UNL1        0.0000
     14 H          -1.0463   -0.2457    7.1151 H       1  UNL1        0.0000
     15 H          -2.7814   -0.3972    7.2949 H       1  UNL1        0.0000
     16 H          -2.0473    1.1837    7.1041 H       1  UNL1        0.0000
@<TRIPOS>BOND
     1     6     2    1
     2    10     3    1
     3    11     4    1
     4     7     2    1
     5     2     1    1
     6     3     8    1
     7     3     1    1
     8     3     9    1
     9     4    13    1
    10     4     1    1
    11     4    12    1
    12     1     5    1
    13     5    16    1
    14     5    14    1
    15     5    15    1
