@<TRIPOS>MOLECULE
2
 16 15 0 0 0
SMALL
GASTEIGER

@<TRIPOS>ATOM
      1 SI         -0.2545    3.0542    6.4546 Si      1  UNL1        0.0000
      2 C           0.5571    1.6221    5.5125 C.3     1  UNL1        0.0000
      3 H           0.2816    0.7151    6.0564 H       1  UNL1        0.0000
      4 H           1.6334    1.7305    5.6671 H       1  UNL1        0.0000
      5 C          -0.0896    4.7664    5.6256 C.3     1  UNL1        0.0000
      6 H           0.9503    5.0492    5.5039 H       1  UNL1        0.0000
      7 H          -0.5723    5.5345    6.2233 H       1  UNL1        0.0000
      8 H          -0.5471    4.7762    4.6430 H       1  UNL1        0.0000
      9 C           0.5903    3.2263    8.1767 C.3     1  UNL1        0.0000
     10 H           0.8002    2.2584    8.6230 H       1  UNL1        0.0000
     11 H          -0.0432    3.7720    8.8699 H       1  UNL1        0.0000
     12 H           1.5305    3.7653    8.1082 H       1  UNL1        0.0000
     13 C          -2.1056    2.7921    6.8535 C.3     1  UNL1        0.0000
     14 H          -2.7095    2.7033    5.9592 H       1  UNL1        0.0000
     15 H          -2.4935    3.6262    7.4317 H       1  UNL1        0.0000
     16 H          -2.2642    1.8903    7.4354 H       1  UNL1        0.0000
@<TRIPOS>BOND
     1     8     5    1
     2     6     5    1
     3     2     4    1
     4     2     3    1
     5     2     1    1
     6     5     7    1
     7     5     1    1
     8    14    13    1
     9     1    13    1
    10     1     9    1
    11    13    15    1
    12    13    16    1
    13    12     9    1
    14     9    10    1
    15     9    11    1
