@<TRIPOS>MOLECULE
2
 16 15 0 0 0
SMALL
GASTEIGER

@<TRIPOS>ATOM
      1 SI          3.6675    0.2708    4.7374 Si      1  UNL1        0.0000
      2 C           3.8842    1.2500    3.1117 C.3     1  UNL1        0.0000
      3 C           3.4056    1.4426    6.2274 C.3     1  UNL1        0.0000
      4 C           5.2434   -0.7668    5.0623 C.3     1  UNL1        0.0000
      5 C           2.1550   -0.8789    4.5828 C.3     1  UNL1        0.0000
      6 H           3.4584    0.6172    2.3217 H       1  UNL1        0.0000
      7 H           4.9502    1.3468    2.8815 H       1  UNL1        0.0000
      8 H           3.2192    0.8699    7.1305 H       1  UNL1        0.0000
      9 H           4.2655    2.0778    6.4206 H       1  UNL1        0.0000
     10 H           2.5395    2.0783    6.0605 H       1  UNL1        0.0000
     11 H           5.4366   -1.4588    4.2490 H       1  UNL1        0.0000
     12 H           5.1426   -1.3511    5.9707 H       1  UNL1        0.0000
     13 H           6.1226   -0.1397    5.1742 H       1  UNL1        0.0000
     14 H           1.2577   -0.2964    4.3972 H       1  UNL1        0.0000
     15 H           2.2667   -1.5850    3.7654 H       1  UNL1        0.0000
     16 H           1.9955   -1.4509    5.4915 H       1  UNL1        0.0000
@<TRIPOS>BOND
     1     6     2    1
     2     7     2    1
     3     2     1    1
     4    15     5    1
     5    11     4    1
     6    14     5    1
     7     5     1    1
     8     5    16    1
     9     1     4    1
    10     1     3    1
    11     4    13    1
    12     4    12    1
    13    10     3    1
    14     3     9    1
    15     3     8    1
