@<TRIPOS>MOLECULE
2
 16 15 0 0 0
SMALL
GASTEIGER

@<TRIPOS>ATOM
      1 SI          2.7765   16.9486    7.1850 Si      1  UNL1        0.0000
      2 C           3.7416   16.1718    5.7769 C.3     1  UNL1        0.0000
      3 H           4.6797   15.7595    6.1658 H       1  UNL1        0.0000
      4 H           4.0220   16.9342    5.0432 H       1  UNL1        0.0000
      5 C           2.6610   15.7067    8.6393 C.3     1  UNL1        0.0000
      6 H           1.8705   15.9662    9.3369 H       1  UNL1        0.0000
      7 H           3.5899   15.6697    9.1992 H       1  UNL1        0.0000
      8 H           2.4629   14.7078    8.2606 H       1  UNL1        0.0000
      9 C           3.4391   18.6047    7.9015 C.3     1  UNL1        0.0000
     10 H           2.8271   18.9679    8.7218 H       1  UNL1        0.0000
     11 H           3.4556   19.3769    7.1386 H       1  UNL1        0.0000
     12 H           4.4528   18.4935    8.2739 H       1  UNL1        0.0000
     13 C           0.9828   17.3091    6.5923 C.3     1  UNL1        0.0000
     14 H           0.3935   17.8062    7.3576 H       1  UNL1        0.0000
     15 H           0.4716   16.3823    6.3250 H       1  UNL1        0.0000
     16 H           0.9862   17.9500    5.7155 H       1  UNL1        0.0000
@<TRIPOS>BOND
     1     4     2    1
     2    16    13    1
     3     2     3    1
     4     2     1    1
     5    15    13    1
     6    13     1    1
     7    13    14    1
     8    11     9    1
     9     1     9    1
    10     1     5    1
    11     9    12    1
    12     9    10    1
    13     8     5    1
    14     5     7    1
    15     5     6    1
