@<TRIPOS>MOLECULE
2
 16 15 0 0 0
SMALL
GASTEIGER

@<TRIPOS>ATOM
      1 SI          2.3670   16.7957    1.8784 Si      1  UNL1        0.0000
      2 C           1.3060   15.6924    2.9664 C.3     1  UNL1        0.0000
      3 H           0.7413   15.0090    2.3209 H       1  UNL1        0.0000
      4 H           0.5467   16.3309    3.4367 H       1  UNL1        0.0000
      5 C           4.1259   16.0463    1.6629 C.3     1  UNL1        0.0000
      6 H           4.8163   16.7682    1.2365 H       1  UNL1        0.0000
      7 H           4.1118   15.1864    0.9987 H       1  UNL1        0.0000
      8 H           4.5294   15.7273    2.6235 H       1  UNL1        0.0000
      9 C           2.5704   18.5411    2.6360 C.3     1  UNL1        0.0000
     10 H           3.3384   19.1162    2.1280 H       1  UNL1        0.0000
     11 H           2.8416   18.4787    3.6848 H       1  UNL1        0.0000
     12 H           1.6442   19.1030    2.5709 H       1  UNL1        0.0000
     13 C           1.7180   17.0545    0.0859 C.3     1  UNL1        0.0000
     14 H           2.3812   17.6834   -0.5001 H       1  UNL1        0.0000
     15 H           0.7392   17.5239    0.0877 H       1  UNL1        0.0000
     16 H           1.6227   16.1070   -0.4369 H       1  UNL1        0.0000
@<TRIPOS>BOND
     1    14    13    1
     2    16    13    1
     3    13    15    1
     4    13     1    1
     5     7     5    1
     6     6     5    1
     7     5     1    1
     8     5     8    1
     9     1     9    1
    10     1     2    1
    11    10     9    1
    12     3     2    1
    13    12     9    1
    14     9    11    1
    15     2     4    1
