@<TRIPOS>MOLECULE
2
 16 15 0 0 0
SMALL
GASTEIGER

@<TRIPOS>ATOM
      1 SI          4.5510   -4.9727   19.6546 Si      1  UNL1        0.0000
      2 C           2.6654   -4.9476   19.6483 C.3     1  UNL1        0.0000
      3 H           2.3455   -5.6382   20.4399 H       1  UNL1        0.0000
      4 H           2.3449   -5.4249   18.7148 H       1  UNL1        0.0000
      5 C           5.4081   -3.2785   19.4038 C.3     1  UNL1        0.0000
      6 H           5.1246   -2.8141   18.4646 H       1  UNL1        0.0000
      7 H           6.4888   -3.3908   19.3961 H       1  UNL1        0.0000
      8 H           5.1562   -2.5901   20.2030 H       1  UNL1        0.0000
      9 C           5.2332   -6.0931   18.2530 C.3     1  UNL1        0.0000
     10 H           4.8924   -7.1169   18.3691 H       1  UNL1        0.0000
     11 H           6.3185   -6.1082   18.2372 H       1  UNL1        0.0000
     12 H           4.8965   -5.7478   17.2801 H       1  UNL1        0.0000
     13 C           5.2398   -5.6669   21.3028 C.3     1  UNL1        0.0000
     14 H           4.9339   -6.6973   21.4546 H       1  UNL1        0.0000
     15 H           4.8799   -5.0889   22.1476 H       1  UNL1        0.0000
     16 H           6.3251   -5.6408   21.3251 H       1  UNL1        0.0000
@<TRIPOS>BOND
     1    12     9    1
     2    11     9    1
     3     9    10    1
     4     9     1    1
     5     6     5    1
     6     4     2    1
     7     7     5    1
     8     5     1    1
     9     5     8    1
    10     2     1    1
    11     2     3    1
    12     1    13    1
    13    13    16    1
    14    13    14    1
    15    13    15    1
