@<TRIPOS>MOLECULE
2
 16 15 0 0 0
SMALL
GASTEIGER

@<TRIPOS>ATOM
      1 SI         -0.9581   -5.5056   18.1608 Si      1  UNL1        0.0000
      2 C          -0.6875   -3.7237   18.7299 C.3     1  UNL1        0.0000
      3 H          -1.5656   -3.4755   19.3391 H       1  UNL1        0.0000
      4 H          -0.7883   -3.1050   17.8270 H       1  UNL1        0.0000
      5 C          -2.7573   -5.8049   17.5575 C.3     1  UNL1        0.0000
      6 H          -3.4728   -5.6159   18.3518 H       1  UNL1        0.0000
      7 H          -2.9066   -6.8261   17.2206 H       1  UNL1        0.0000
      8 H          -3.0088   -5.1482   16.7304 H       1  UNL1        0.0000
      9 C           0.1621   -5.9591   16.6745 C.3     1  UNL1        0.0000
     10 H           0.0001   -5.2779   15.8450 H       1  UNL1        0.0000
     11 H          -0.0530   -6.9619   16.3189 H       1  UNL1        0.0000
     12 H           1.2166   -5.9225   16.9266 H       1  UNL1        0.0000
     13 C          -0.6816   -6.7544   19.5868 C.3     1  UNL1        0.0000
     14 H          -1.2964   -6.5072   20.4475 H       1  UNL1        0.0000
     15 H           0.3534   -6.7761   19.9109 H       1  UNL1        0.0000
     16 H          -0.9468   -7.7607   19.2775 H       1  UNL1        0.0000
@<TRIPOS>BOND
     1    10     9    1
     2    11     9    1
     3     9    12    1
     4     9     1    1
     5     8     5    1
     6     7     5    1
     7     5     1    1
     8     5     6    1
     9     4     2    1
    10     1     2    1
    11     1    13    1
    12     2     3    1
    13    16    13    1
    14    13    15    1
    15    13    14    1
