@<TRIPOS>MOLECULE
5
 13 13 0 0 0
SMALL
GASTEIGER

@<TRIPOS>ATOM
      1 C           5.6381   -0.1899   14.3478 C.2     1  UNL1       -0.0808
      2 H           5.4988   -0.3798   13.2921 H       1  UNL1        0.0575
      3 C           5.0041    0.8390   15.0888 C.3     1  UNL1       -0.0124
      4 H           4.2859    1.5491   14.6971 H       1  UNL1        0.0352
      5 C           5.2878    0.6195   16.4598 C.3     1  UNL1       -0.0232
      6 H           4.8339    1.1413   17.2925 H       1  UNL1        0.0316
      7 C           6.1120   -0.5284   16.5517 C.3     1  UNL1       -0.0097
      8 H           6.3787   -1.0359   17.4697 H       1  UNL1        0.0354
      9 C           6.2896   -1.0555   15.2499 C.2     1  UNL1       -0.0723
     10 C           6.9143   -2.3731   14.9130 C.3     1  UNL1       -0.0435
     11 H           7.6554   -2.6641   15.6581 H       1  UNL1        0.0274
     12 H           7.3894   -2.3507   13.9321 H       1  UNL1        0.0274
     13 H           6.1391   -3.1437   14.8904 H       1  UNL1        0.0274
@<TRIPOS>BOND
     1     2     1    1
     2    12    10    1
     3     1     3    1
     4     1     9    2
     5     4     3    1
     6    13    10    1
     7    10     9    1
     8    10    11    1
     9     3     5    1
    10     9     7    1
    11     5     7    1
    12     5     6    1
    13     7     8    1
