@<TRIPOS>MOLECULE
3
 65 67 0 0 0
SMALL
GASTEIGER

@<TRIPOS>ATOM
      1 N          13.3204    1.3006   15.9130 N.pl3   1  UNL1       -0.2762
      2 N          14.7251    1.3369   14.2960 N.pl3   1  UNL1       -0.2762
      3 C          13.3884    1.3853   14.5520 C.3     1  UNL1        0.1959
      4 C          14.5751    1.2067   16.4714 C.2     1  UNL1        0.0131
      5 H          14.7256    1.1095   17.5262 H       1  UNL1        0.0797
      6 C          15.4582    1.2352   15.4562 C.2     1  UNL1        0.0131
      7 H          16.5281    1.1955   15.4542 H       1  UNL1        0.0797
      8 C          12.1605    1.2171   16.7242 C.ar    1  UNL1        0.0424
      9 C          11.8681    2.2449   17.6270 C.ar    1  UNL1       -0.0231
     10 C          10.7678    2.0922   18.4622 C.ar    1  UNL1       -0.0565
     11 H          10.5192    2.8721   19.1647 H       1  UNL1        0.0621
     12 C           9.9952    0.9498   18.4201 C.ar    1  UNL1       -0.0611
     13 H           9.1486    0.8465   19.0827 H       1  UNL1        0.0618
     14 C          10.3124   -0.0696   17.5415 C.ar    1  UNL1       -0.0565
     15 H           9.7121   -0.9644   17.5358 H       1  UNL1        0.0621
     16 C          11.3919    0.0457   16.6794 C.ar    1  UNL1       -0.0231
     17 C          11.7864   -1.0799   15.7517 C.3     1  UNL1       -0.0197
     18 H          12.1979   -0.6264   14.8430 H       1  UNL1        0.0344
     19 C          10.6130   -1.9634   15.3341 C.3     1  UNL1       -0.0586
     20 H          10.2650   -2.5817   16.1586 H       1  UNL1        0.0235
     21 H          10.9273   -2.6278   14.5318 H       1  UNL1        0.0235
     22 H           9.7877   -1.3556   14.9733 H       1  UNL1        0.0235
     23 C          12.8731   -1.9327   16.4166 C.3     1  UNL1       -0.0586
     24 H          13.7566   -1.3393   16.6396 H       1  UNL1        0.0235
     25 H          13.1651   -2.7460   15.7562 H       1  UNL1        0.0235
     26 H          12.5021   -2.3590   17.3470 H       1  UNL1        0.0235
     27 C          12.7367    3.4765   17.7624 C.3     1  UNL1       -0.0197
     28 H          13.4494    3.5013   16.9330 H       1  UNL1        0.0344
     29 C          11.9243    4.7729   17.7185 C.3     1  UNL1       -0.0586
     30 H          11.3080    4.8160   16.8244 H       1  UNL1        0.0235
     31 H          12.5989    5.6264   17.7085 H       1  UNL1        0.0235
     32 H          11.2782    4.8652   18.5877 H       1  UNL1        0.0235
     33 C          13.5202    3.4155   19.0789 C.3     1  UNL1       -0.0586
     34 H          12.8393    3.4342   19.9267 H       1  UNL1        0.0235
     35 H          14.1896    4.2695   19.1557 H       1  UNL1        0.0235
     36 H          14.1143    2.5075   19.1462 H       1  UNL1        0.0235
     37 C          15.3722    1.3399   13.0334 C.ar    1  UNL1        0.0424
     38 C          15.5064    0.1351   12.3331 C.ar    1  UNL1       -0.0231
     39 C          16.2084    0.1502   11.1362 C.ar    1  UNL1       -0.0565
     40 H          16.3276   -0.7601   10.5714 H       1  UNL1        0.0621
     41 C          16.7772    1.3174   10.6610 C.ar    1  UNL1       -0.0611
     42 H          17.3234    1.3080    9.7292 H       1  UNL1        0.0618
     43 C          16.6663    2.4895   11.3823 C.ar    1  UNL1       -0.0565
     44 H          17.1367    3.3868   11.0118 H       1  UNL1        0.0621
     45 C          15.9630    2.5225   12.5790 C.ar    1  UNL1       -0.0231
     46 C          15.8925    3.7967   13.3885 C.3     1  UNL1       -0.0197
     47 H          15.1570    3.6626   14.1872 H       1  UNL1        0.0344
     48 C          15.4486    4.9931   12.5462 C.3     1  UNL1       -0.0586
     49 H          16.1941    5.2492   11.7978 H       1  UNL1        0.0235
     50 H          15.3026    5.8603   13.1873 H       1  UNL1        0.0235
     51 H          14.5117    4.7740   12.0420 H       1  UNL1        0.0235
     52 C          17.2557    4.0797   14.0285 C.3     1  UNL1       -0.0586
     53 H          17.5624    3.2583   14.6720 H       1  UNL1        0.0235
     54 H          17.2071    4.9855   14.6288 H       1  UNL1        0.0235
     55 H          18.0160    4.2138   13.2624 H       1  UNL1        0.0235
     56 C          14.9766   -1.1547   12.9181 C.3     1  UNL1       -0.0197
     57 H          14.0789   -0.9191   13.4957 H       1  UNL1        0.0344
     58 C          14.6026   -2.1958   11.8633 C.3     1  UNL1       -0.0586
     59 H          13.9888   -1.7582   11.0806 H       1  UNL1        0.0235
     60 H          14.0355   -2.9978   12.3305 H       1  UNL1        0.0235
     61 H          15.4888   -2.6346   11.4103 H       1  UNL1        0.0235
     62 C          16.0271   -1.7513   13.8633 C.3     1  UNL1       -0.0586
     63 H          16.9598   -1.9238   13.3295 H       1  UNL1        0.0235
     64 H          15.6750   -2.7012   14.2592 H       1  UNL1        0.0235
     65 H          16.2268   -1.0873   14.6998 H       1  UNL1        0.0235
@<TRIPOS>BOND
     1    42    41    1
     2    40    39    1
     3    41    39   ar
     4    41    43   ar
     5    44    43    1
     6    59    58    1
     7    39    38   ar
     8    43    45   ar
     9    61    58    1
    10    49    48    1
    11    58    60    1
    12    58    56    1
    13    51    48    1
    14    38    56    1
    15    38    37   ar
    16    48    50    1
    17    48    46    1
    18    45    37   ar
    19    45    46    1
    20    56    57    1
    21    56    62    1
    22    37     2    1
    23    55    52    1
    24    63    62    1
    25    46    52    1
    26    46    47    1
    27    62    64    1
    28    62    65    1
    29    52    54    1
    30    52    53    1
    31     2     3    1
    32     2     6    1
    33    21    19    1
    34     3     1    1
    35    18    17    1
    36    22    19    1
    37    19    17    1
    38    19    20    1
    39     7     6    1
    40     6     4    2
    41    17    23    1
    42    17    16    1
    43    25    23    1
    44     1     4    1
    45     1     8    1
    46    23    24    1
    47    23    26    1
    48     4     5    1
    49    16     8   ar
    50    16    14   ar
    51     8     9   ar
    52    30    29    1
    53    28    27    1
    54    15    14    1
    55    14    12   ar
    56     9    27    1
    57     9    10   ar
    58    31    29    1
    59    29    27    1
    60    29    32    1
    61    27    33    1
    62    12    10   ar
    63    12    13    1
    64    10    11    1
    65    33    36    1
    66    33    35    1
    67    33    34    1
