@<TRIPOS>MOLECULE
2
 16 15 0 0 0
SMALL
GASTEIGER

@<TRIPOS>ATOM
      1 SI          9.5205    2.9324   -2.3332 Si      1  UNL1        0.0000
      2 C           7.7355    3.5317   -2.1985 C.3     1  UNL1        0.0000
      3 H           7.7628    4.4750   -1.6247 H       1  UNL1        0.0000
      4 H           7.2084    2.8268   -1.5363 H       1  UNL1        0.0000
      5 C          10.8046    4.2892   -1.8859 C.3     1  UNL1        0.0000
      6 H          10.5887    5.2434   -2.3544 H       1  UNL1        0.0000
      7 H          11.8071    3.9987   -2.1866 H       1  UNL1        0.0000
      8 H          10.8223    4.4539   -0.8127 H       1  UNL1        0.0000
      9 C           9.9400    2.3017   -4.1037 C.3     1  UNL1        0.0000
     10 H           9.9395    3.1075   -4.8332 H       1  UNL1        0.0000
     11 H           9.2178    1.5590   -4.4352 H       1  UNL1        0.0000
     12 H          10.9209    1.8363   -4.1350 H       1  UNL1        0.0000
     13 C           9.9736    1.4787   -1.1621 C.3     1  UNL1        0.0000
     14 H           9.6060    1.6552   -0.1556 H       1  UNL1        0.0000
     15 H          11.0496    1.3454   -1.0956 H       1  UNL1        0.0000
     16 H           9.5533    0.5392   -1.5053 H       1  UNL1        0.0000
@<TRIPOS>BOND
     1    10     9    1
     2    11     9    1
     3    12     9    1
     4     9     1    1
     5     6     5    1
     6     1     2    1
     7     1     5    1
     8     1    13    1
     9     2     3    1
    10     2     4    1
    11     7     5    1
    12     5     8    1
    13    16    13    1
    14    13    15    1
    15    13    14    1
