@<TRIPOS>MOLECULE
2
 16 15 0 0 0
SMALL
GASTEIGER

@<TRIPOS>ATOM
      1 SI          3.0400    4.2569   -1.9556 Si      1  UNL1        0.0000
      2 C           4.1145    3.3095   -3.1771 C.3     1  UNL1        0.0000
      3 H           3.4797    3.0940   -4.0519 H       1  UNL1        0.0000
      4 H           4.2843    2.3181   -2.7199 H       1  UNL1        0.0000
      5 C           1.3469    3.4225   -1.5839 C.3     1  UNL1        0.0000
      6 H           1.4802    2.4071   -1.2217 H       1  UNL1        0.0000
      7 H           0.7300    3.3700   -2.4766 H       1  UNL1        0.0000
      8 H           0.7841    3.9671   -0.8314 H       1  UNL1        0.0000
      9 C           3.9590    4.3695   -0.2767 C.3     1  UNL1        0.0000
     10 H           3.7853    3.4791    0.3195 H       1  UNL1        0.0000
     11 H           3.6311    5.2214    0.3106 H       1  UNL1        0.0000
     12 H           5.0325    4.4583   -0.4247 H       1  UNL1        0.0000
     13 C           2.6330    6.0041   -2.6235 C.3     1  UNL1        0.0000
     14 H           2.2920    6.6677   -1.8350 H       1  UNL1        0.0000
     15 H           1.8473    5.9619   -3.3716 H       1  UNL1        0.0000
     16 H           3.5006    6.4621   -3.0894 H       1  UNL1        0.0000
@<TRIPOS>BOND
     1     3     2    1
     2    15    13    1
     3     2     4    1
     4     2     1    1
     5    16    13    1
     6    13     1    1
     7    13    14    1
     8     7     5    1
     9     1     5    1
    10     1     9    1
    11     5     6    1
    12     5     8    1
    13    12     9    1
    14     9    11    1
    15     9    10    1
