@<TRIPOS>MOLECULE
1
 33 36 0 0 0
SMALL
GASTEIGER

@<TRIPOS>ATOM
      1 C          62.2052    4.4912    0.6747 C.1     1  UNL1       -0.0092
      2 C          61.1783    4.3719    0.0358 C.1     1  UNL1       -0.0525
      3 C          59.9729    4.2776   -0.6929 C.ar    1  UNL1        0.0260
      4 C          57.5921    4.0783   -2.1354 C.ar    1  UNL1        0.0473
      5 C          59.9918    4.0222   -2.0674 C.ar    1  UNL1       -0.0443
      6 H          60.9406    3.8920   -2.5690 H       1  UNL1        0.0630
      7 N          56.3926    3.9701   -2.8604 N.ar    1  UNL1       -0.3087
      8 C          53.1417    2.5654   -3.4100 C.ar    1  UNL1       -0.0520
      9 H          52.3546    2.6849   -4.1396 H       1  UNL1        0.0624
     10 C          55.3345    3.1456   -2.5463 C.ar    1  UNL1        0.0549
     11 C          58.7384    4.4417   -0.0572 C.ar    1  UNL1       -0.0443
     12 H          58.7108    4.6584    1.0025 H       1  UNL1        0.0630
     13 C          54.7866    4.2866   -4.4456 C.ar    1  UNL1        0.0079
     14 C          55.2051    2.2319   -1.5096 C.ar    1  UNL1       -0.0372
     15 H          55.9987    2.0878   -0.7914 H       1  UNL1        0.0638
     16 C          57.5624    4.3470   -0.7699 C.ar    1  UNL1       -0.0367
     17 H          56.6109    4.4905   -0.2777 H       1  UNL1        0.0639
     18 C          54.2425    4.8685   -5.5832 C.ar    1  UNL1       -0.0520
     19 H          53.2590    4.5833   -5.9258 H       1  UNL1        0.0624
     20 C          54.3110    3.3080   -3.5095 C.ar    1  UNL1        0.0079
     21 C          56.0773    4.6654   -4.0071 C.ar    1  UNL1        0.0549
     22 C          54.0333    1.5052   -1.4329 C.ar    1  UNL1       -0.0598
     23 H          53.9065    0.7889   -0.6341 H       1  UNL1        0.0618
     24 C          56.2443    6.1988   -5.8084 C.ar    1  UNL1       -0.0598
     25 H          56.7929    6.9543   -6.3521 H       1  UNL1        0.0618
     26 C          54.9818    5.8180   -6.2593 C.ar    1  UNL1       -0.0611
     27 H          54.5773    6.2812   -7.1472 H       1  UNL1        0.0618
     28 C          53.0113    1.6724   -2.3656 C.ar    1  UNL1       -0.0611
     29 H          52.1090    1.0866   -2.2694 H       1  UNL1        0.0618
     30 C          56.8074    5.6349   -4.6805 C.ar    1  UNL1       -0.0372
     31 H          57.7805    5.9446   -4.3291 H       1  UNL1        0.0638
     32 C          58.8162    3.9176   -2.7787 C.ar    1  UNL1       -0.0367
     33 H          58.8354    3.6992   -3.8371 H       1  UNL1        0.0639
@<TRIPOS>BOND
     1    27    26    1
     2    25    24    1
     3    26    24   ar
     4    26    18   ar
     5    19    18    1
     6    24    30   ar
     7    18    13   ar
     8    30    31    1
     9    30    21   ar
    10    13    21   ar
    11    13    20   ar
    12     9     8    1
    13    21     7   ar
    14    33    32    1
    15    20     8   ar
    16    20    10   ar
    17     8    28   ar
    18     7    10   ar
    19     7     4    1
    20    32     4   ar
    21    32     5   ar
    22     6     5    1
    23    10    14   ar
    24    28    29    1
    25    28    22   ar
    26     4    16   ar
    27     5     3   ar
    28    14    22   ar
    29    14    15    1
    30    22    23    1
    31    16    17    1
    32    16    11   ar
    33     3    11   ar
    34     3     2    1
    35    11    12    1
    36     2     1    3
