@<TRIPOS>MOLECULE
1
 39 39 0 0 0
SMALL
GASTEIGER

@<TRIPOS>ATOM
      1 C          65.7528    4.4354    2.5855 C.1     1  UNL1        0.0000
      2 C          66.7829    4.2784    3.2181 C.1     1  UNL1        0.0000
      3 C          67.9554    3.6345    5.2542 C.ar    1  UNL1        0.0000
      4 H          67.0079    3.3619    5.6971 H       1  UNL1        0.0000
      5 C          67.9739    4.1406    3.9448 C.ar    1  UNL1        0.0000
      6 C          69.2088    4.5119    3.3890 C.ar    1  UNL1        0.0000
      7 H          69.2345    4.9222    2.3879 H       1  UNL1        0.0000
      8 C          70.3589    3.8269    5.4080 C.ar    1  UNL1        0.0000
      9 C          70.3672    4.3655    4.1073 C.ar    1  UNL1        0.0000
     10 H          71.3121    4.6562    3.6686 H       1  UNL1        0.0000
     11 C          69.1171    3.4731    5.9641 C.ar    1  UNL1        0.0000
     12 H          69.0772    3.0780    6.9663 H       1  UNL1        0.0000
     13 C          71.6052    3.6767    6.0874 C.2     1  UNL1        0.0000
     14 H          72.4715    4.0934    5.5825 H       1  UNL1        0.0000
     15 O          73.4661    2.3637    8.8415 O.3     1  UNL1        0.0000
     16 C          71.8931    3.0727    7.2739 C.2     1  UNL1        0.0000
     17 N          70.2814    1.8622    8.8420 N.1     1  UNL1        0.0000
     18 O          74.1980    3.6489    7.1405 O.2     1  UNL1        0.0000
     19 C          74.7763    2.3218    9.4084 C.3     1  UNL1        0.0000
     20 H          74.8290    1.3628    9.9259 H       1  UNL1        0.0000
     21 H          75.5096    2.3488    8.5969 H       1  UNL1        0.0000
     22 C          73.3057    3.0776    7.7244 C.2     1  UNL1        0.0000
     23 SI         76.7385    3.4528   11.1688 Si      1  UNL1        0.0000
     24 C          75.0000    3.4769   10.3679 C.3     1  UNL1        0.0000
     25 H          74.8621    4.4083    9.8169 H       1  UNL1        0.0000
     26 H          74.2226    3.4444   11.1321 H       1  UNL1        0.0000
     27 C          76.7971    4.8345   12.4833 C.3     1  UNL1        0.0000
     28 H          76.6016    5.8086   12.0458 H       1  UNL1        0.0000
     29 H          76.0603    4.6726   13.2640 H       1  UNL1        0.0000
     30 H          77.7719    4.8792   12.9584 H       1  UNL1        0.0000
     31 C          77.0413    1.7610   12.0002 C.3     1  UNL1        0.0000
     32 H          77.1118    0.9641   11.2658 H       1  UNL1        0.0000
     33 H          77.9669    1.7628   12.5678 H       1  UNL1        0.0000
     34 H          76.2391    1.5055   12.6860 H       1  UNL1        0.0000
     35 C          78.0626    3.7638    9.8314 C.3     1  UNL1        0.0000
     36 H          78.0962    2.9529    9.1098 H       1  UNL1        0.0000
     37 H          77.8603    4.6787    9.2826 H       1  UNL1        0.0000
     38 H          79.0533    3.8546   10.2666 H       1  UNL1        0.0000
     39 C          70.9872    2.4148    8.1218 C.1     1  UNL1        0.0000
@<TRIPOS>BOND
     1     7     6    1
     2     1     2    3
     3     2     5    1
     4     6     5   ar
     5     6     9   ar
     6    10     9    1
     7     5     3   ar
     8     9     8   ar
     9     3     4    1
    10     3    11   ar
    11     8    11   ar
    12     8    13    1
    13    14    13    1
    14    11    12    1
    15    13    16    2
    16    18    22    2
    17    16    22    1
    18    16    39    1
    19    22    15    1
    20    39    17    3
    21    21    19    1
    22    15    19    1
    23    36    35    1
    24    37    35    1
    25    19    20    1
    26    19    24    1
    27    25    24    1
    28    35    38    1
    29    35    23    1
    30    24    26    1
    31    24    23    1
    32    23    31    1
    33    23    27    1
    34    32    31    1
    35    31    33    1
    36    31    34    1
    37    28    27    1
    38    27    30    1
    39    27    29    1
