@<TRIPOS>MOLECULE
2
 23 23 0 0 0
SMALL
GASTEIGER

@<TRIPOS>ATOM
      1 SI         15.2590    3.8786    6.6729 Si      1  UNL1        0.0000
      2 C          13.9058    4.5907    5.5844 C.3     1  UNL1        0.0000
      3 H          13.3323    3.7336    5.1888 H       1  UNL1        0.0000
      4 H          14.4087    5.0325    4.7052 H       1  UNL1        0.0000
      5 C          14.6477    3.5591    8.4688 C.3     1  UNL1        0.0000
      6 H          13.8789    4.2780    8.7487 H       1  UNL1        0.0000
      7 H          15.4597    3.6527    9.1832 H       1  UNL1        0.0000
      8 H          14.2352    2.5603    8.5825 H       1  UNL1        0.0000
      9 C          16.7790    5.0470    6.8078 C.3     1  UNL1        0.0000
     10 H          16.9720    5.5610    5.8711 H       1  UNL1        0.0000
     11 H          17.6764    4.4917    7.0631 H       1  UNL1        0.0000
     12 H          16.6308    5.7982    7.5782 H       1  UNL1        0.0000
     13 C          15.9495    2.1954    6.0739 C.ar    1  UNL1        0.0000
     14 C          16.7694    1.4189    6.8883 C.ar    1  UNL1        0.0000
     15 H          17.0255    1.7793    7.8748 H       1  UNL1        0.0000
     16 C          17.2619    0.1982    6.4644 C.ar    1  UNL1        0.0000
     17 H          17.8975   -0.3859    7.1161 H       1  UNL1        0.0000
     18 C          16.9410   -0.2785    5.2046 C.ar    1  UNL1        0.0000
     19 H          17.3227   -1.2330    4.8700 H       1  UNL1        0.0000
     20 C          16.1276    0.4765    4.3775 C.ar    1  UNL1        0.0000
     21 H          15.8729    0.1112    3.3918 H       1  UNL1        0.0000
     22 C          15.6419    1.6966    4.8126 C.ar    1  UNL1        0.0000
     23 H          15.0087    2.2779    4.1574 H       1  UNL1        0.0000
@<TRIPOS>BOND
     1    21    20    1
     2    23    22    1
     3    20    22   ar
     4    20    18   ar
     5     4     2    1
     6    22    13   ar
     7    19    18    1
     8     3     2    1
     9    18    16   ar
    10     2     1    1
    11    10     9    1
    12    13     1    1
    13    13    14   ar
    14    16    14   ar
    15    16    17    1
    16     1     9    1
    17     1     5    1
    18     9    11    1
    19     9    12    1
    20    14    15    1
    21     5     8    1
    22     5     6    1
    23     5     7    1
