@<TRIPOS>MOLECULE
2
 23 23 0 0 0
SMALL
GASTEIGER

@<TRIPOS>ATOM
      1 SI         10.5929    5.8888    3.0227 Si      1  UNL1        0.0000
      2 C          10.7179    6.7845    4.6701 C.3     1  UNL1        0.0000
      3 H           9.7118    6.7696    5.1263 H       1  UNL1        0.0000
      4 H          10.9097    7.8465    4.4404 H       1  UNL1        0.0000
      5 C           9.2638    6.5134    1.7820 C.3     1  UNL1        0.0000
      6 H           8.2810    6.5523    2.2424 H       1  UNL1        0.0000
      7 H           9.1884    5.8754    0.9059 H       1  UNL1        0.0000
      8 H           9.4964    7.5171    1.4381 H       1  UNL1        0.0000
      9 C          12.2628    5.9882    2.0844 C.3     1  UNL1        0.0000
     10 H          12.4269    6.9888    1.6953 H       1  UNL1        0.0000
     11 H          12.2920    5.3057    1.2409 H       1  UNL1        0.0000
     12 H          13.0955    5.7460    2.7414 H       1  UNL1        0.0000
     13 C          10.1879    4.0468    3.3266 C.ar    1  UNL1        0.0000
     14 C           8.8841    3.6316    3.5762 C.ar    1  UNL1        0.0000
     15 H           8.0878    4.3632    3.5738 H       1  UNL1        0.0000
     16 C           8.5783    2.3019    3.8097 C.ar    1  UNL1        0.0000
     17 H           7.5534    2.0044    3.9896 H       1  UNL1        0.0000
     18 C           9.5838    1.3496    3.8030 C.ar    1  UNL1        0.0000
     19 H           9.3509    0.3094    3.9842 H       1  UNL1        0.0000
     20 C          10.8896    1.7404    3.5566 C.ar    1  UNL1        0.0000
     21 H          11.6803    1.0019    3.5440 H       1  UNL1        0.0000
     22 C          11.1802    3.0732    3.3193 C.ar    1  UNL1        0.0000
     23 H          12.1994    3.3627    3.1091 H       1  UNL1        0.0000
@<TRIPOS>BOND
     1     7     5    1
     2    11     9    1
     3     8     5    1
     4    10     9    1
     5     5     6    1
     6     5     1    1
     7     9    12    1
     8     9     1    1
     9     1    13    1
    10     1     2    1
    11    23    22    1
    12    22    13   ar
    13    22    20   ar
    14    13    14   ar
    15    21    20    1
    16    20    18   ar
    17    15    14    1
    18    14    16   ar
    19    18    16   ar
    20    18    19    1
    21    16    17    1
    22     4     2    1
    23     2     3    1
