@<TRIPOS>MOLECULE
2
 23 23 0 0 0
SMALL
GASTEIGER

@<TRIPOS>ATOM
      1 SI         11.1350    8.1469    8.9771 Si      1  UNL1        0.0000
      2 C          12.1709    6.6645    8.4730 C.3     1  UNL1        0.0000
      3 H          11.8083    5.8028    9.0602 H       1  UNL1        0.0000
      4 H          13.2045    6.8357    8.8223 H       1  UNL1        0.0000
      5 C          11.1197    8.6416   10.8336 C.3     1  UNL1        0.0000
      6 H          10.6189    7.8842   11.4295 H       1  UNL1        0.0000
      7 H          10.6080    9.5845   11.0040 H       1  UNL1        0.0000
      8 H          12.1280    8.7402   11.2247 H       1  UNL1        0.0000
      9 C           9.3016    7.8513    8.4942 C.3     1  UNL1        0.0000
     10 H           9.2271    7.4570    7.4823 H       1  UNL1        0.0000
     11 H           8.7173    8.7648    8.5428 H       1  UNL1        0.0000
     12 H           8.8366    7.1332    9.1630 H       1  UNL1        0.0000
     13 C          11.7471    9.6794    8.0158 C.ar    1  UNL1        0.0000
     14 C          12.7365   10.5152    8.5231 C.ar    1  UNL1        0.0000
     15 H          13.1489   10.3121    9.5014 H       1  UNL1        0.0000
     16 C          13.1992   11.6073    7.8087 C.ar    1  UNL1        0.0000
     17 H          13.9678   12.2431    8.2274 H       1  UNL1        0.0000
     18 C          12.6731   11.8893    6.5594 C.ar    1  UNL1        0.0000
     19 H          13.0264   12.7444    5.9996 H       1  UNL1        0.0000
     20 C          11.6866   11.0699    6.0355 C.ar    1  UNL1        0.0000
     21 H          11.2617   11.2919    5.0651 H       1  UNL1        0.0000
     22 C          11.2371    9.9773    6.7571 C.ar    1  UNL1        0.0000
     23 H          10.4612    9.3491    6.3421 H       1  UNL1        0.0000
@<TRIPOS>BOND
     1    21    20    1
     2    19    18    1
     3    20    18   ar
     4    20    22   ar
     5    23    22    1
     6    18    16   ar
     7    22    13   ar
     8    10     9    1
     9    16    17    1
    10    16    14   ar
    11    13    14   ar
    12    13     1    1
    13     2     4    1
    14     2     1    1
    15     2     3    1
    16     9    11    1
    17     9     1    1
    18     9    12    1
    19    14    15    1
    20     1     5    1
    21     5     7    1
    22     5     8    1
    23     5     6    1
