@<TRIPOS>MOLECULE
2
 23 23 0 0 0
SMALL
GASTEIGER

@<TRIPOS>ATOM
      1 SI          6.3382    4.3332    7.1158 Si      1  UNL1        0.0000
      2 C           8.1760    4.0733    6.8363 C.3     1  UNL1        0.0000
      3 H           8.6074    3.5645    7.7082 H       1  UNL1        0.0000
      4 H           8.6804    5.0434    6.7608 H       1  UNL1        0.0000
      5 C           5.4778    2.6319    7.2833 C.3     1  UNL1        0.0000
      6 H           4.4039    2.6980    7.1393 H       1  UNL1        0.0000
      7 H           5.6473    2.2186    8.2723 H       1  UNL1        0.0000
      8 H           5.8779    1.9223    6.5598 H       1  UNL1        0.0000
      9 C           5.8069    5.3837    8.6326 C.3     1  UNL1        0.0000
     10 H           4.7335    5.5468    8.6550 H       1  UNL1        0.0000
     11 H           6.2853    6.3580    8.6268 H       1  UNL1        0.0000
     12 H           6.0851    4.8923    9.5597 H       1  UNL1        0.0000
     13 C           5.6738    5.2409    5.5707 C.ar    1  UNL1        0.0000
     14 C           5.8940    6.6035    5.3986 C.ar    1  UNL1        0.0000
     15 H           6.4275    7.1498    6.1641 H       1  UNL1        0.0000
     16 C           5.4340    7.2768    4.2802 C.ar    1  UNL1        0.0000
     17 H           5.6048    8.3403    4.1752 H       1  UNL1        0.0000
     18 C           4.7443    6.5899    3.2948 C.ar    1  UNL1        0.0000
     19 H           4.3826    7.1106    2.4192 H       1  UNL1        0.0000
     20 C           4.5134    5.2327    3.4459 C.ar    1  UNL1        0.0000
     21 H           3.9689    4.6911    2.6843 H       1  UNL1        0.0000
     22 C           4.9719    4.5720    4.5733 C.ar    1  UNL1        0.0000
     23 H           4.7636    3.5187    4.6898 H       1  UNL1        0.0000
@<TRIPOS>BOND
     1    19    18    1
     2    21    20    1
     3    18    20   ar
     4    18    16   ar
     5    20    22   ar
     6    17    16    1
     7    16    14   ar
     8    22    23    1
     9    22    13   ar
    10    14    13   ar
    11    14    15    1
    12    13     1    1
    13     8     5    1
    14     4     2    1
    15     2     1    1
    16     2     3    1
    17     1     5    1
    18     1     9    1
    19     6     5    1
    20     5     7    1
    21    11     9    1
    22     9    10    1
    23     9    12    1
