@<TRIPOS>MOLECULE
2
 23 23 0 0 0
SMALL
GASTEIGER

@<TRIPOS>ATOM
      1 SI          7.6444    0.7467    2.0864 Si      1  UNL1        0.0000
      2 C           7.0348    1.9699    3.3810 C.3     1  UNL1        0.0000
      3 H           6.2408    1.4654    3.9486 H       1  UNL1        0.0000
      4 H           6.5415    2.8068    2.8753 H       1  UNL1        0.0000
      5 C           6.3075   -0.4983    1.4904 C.3     1  UNL1        0.0000
      6 H           6.6966   -1.1787    0.7388 H       1  UNL1        0.0000
      7 H           5.4584    0.0190    1.0542 H       1  UNL1        0.0000
      8 H           5.9382   -1.0966    2.3179 H       1  UNL1        0.0000
      9 C           9.1078   -0.3075    2.7309 C.3     1  UNL1        0.0000
     10 H           9.3864   -1.0866    2.0273 H       1  UNL1        0.0000
     11 H           8.8385   -0.8017    3.6592 H       1  UNL1        0.0000
     12 H           9.9934    0.2935    2.9250 H       1  UNL1        0.0000
     13 C           8.2056    1.6386    0.4919 C.ar    1  UNL1        0.0000
     14 C           7.5455    2.7737    0.0339 C.ar    1  UNL1        0.0000
     15 H           6.7295    3.1799    0.6144 H       1  UNL1        0.0000
     16 C           7.8975    3.3870   -1.1559 C.ar    1  UNL1        0.0000
     17 H           7.3689    4.2706   -1.4865 H       1  UNL1        0.0000
     18 C           8.9209    2.8639   -1.9281 C.ar    1  UNL1        0.0000
     19 H           9.1963    3.3355   -2.8605 H       1  UNL1        0.0000
     20 C           9.5854    1.7279   -1.4969 C.ar    1  UNL1        0.0000
     21 H          10.3823    1.3095   -2.0964 H       1  UNL1        0.0000
     22 C           9.2289    1.1294   -0.3007 C.ar    1  UNL1        0.0000
     23 H           9.7539    0.2424    0.0221 H       1  UNL1        0.0000
@<TRIPOS>BOND
     1    19    18    1
     2    21    20    1
     3    18    20   ar
     4    18    16   ar
     5    20    22   ar
     6    17    16    1
     7    16    14   ar
     8    22    23    1
     9    22    13   ar
    10    14    13   ar
    11    14    15    1
    12    13     1    1
    13     6     5    1
    14     7     5    1
    15     5     1    1
    16     5     8    1
    17    10     9    1
    18     1     9    1
    19     1     2    1
    20     9    12    1
    21     9    11    1
    22     4     2    1
    23     2     3    1
