@<TRIPOS>MOLECULE
2
 23 23 0 0 0
SMALL
GASTEIGER

@<TRIPOS>ATOM
      1 SI          5.7177   -1.9572    9.1107 Si      1  UNL1        0.0000
      2 C           4.4889   -1.7225    7.7142 C.3     1  UNL1        0.0000
      3 H           3.5920   -1.2679    8.1551 H       1  UNL1        0.0000
      4 H           4.1730   -2.7208    7.3864 H       1  UNL1        0.0000
      5 C           7.3074   -2.8465    8.5090 C.3     1  UNL1        0.0000
      6 H           7.1511   -3.9206    8.4597 H       1  UNL1        0.0000
      7 H           8.1420   -2.6711    9.1798 H       1  UNL1        0.0000
      8 H           7.6005   -2.5026    7.5229 H       1  UNL1        0.0000
      9 C           6.1028   -0.2698    9.9300 C.3     1  UNL1        0.0000
     10 H           6.1635    0.5101    9.1786 H       1  UNL1        0.0000
     11 H           7.0428   -0.2854   10.4711 H       1  UNL1        0.0000
     12 H           5.3267    0.0022   10.6400 H       1  UNL1        0.0000
     13 C           5.0705   -3.0613   10.5331 C.ar    1  UNL1        0.0000
     14 C           5.8457   -3.3046   11.6632 C.ar    1  UNL1        0.0000
     15 H           6.8281   -2.8594   11.7343 H       1  UNL1        0.0000
     16 C           5.3877   -4.1024   12.6957 C.ar    1  UNL1        0.0000
     17 H           6.0094   -4.2767   13.5633 H       1  UNL1        0.0000
     18 C           4.1312   -4.6794   12.6195 C.ar    1  UNL1        0.0000
     19 H           3.7692   -5.3037   13.4243 H       1  UNL1        0.0000
     20 C           3.3432   -4.4508   11.5049 C.ar    1  UNL1        0.0000
     21 H           2.3609   -4.8979   11.4372 H       1  UNL1        0.0000
     22 C           3.8128   -3.6511   10.4780 C.ar    1  UNL1        0.0000
     23 H           3.1895   -3.4811    9.6118 H       1  UNL1        0.0000
@<TRIPOS>BOND
     1     4     2    1
     2     8     5    1
     3     2     3    1
     4     2     1    1
     5     6     5    1
     6     5     1    1
     7     5     7    1
     8     1     9    1
     9     1    13    1
    10    10     9    1
    11    23    22    1
    12     9    11    1
    13     9    12    1
    14    22    13   ar
    15    22    20   ar
    16    13    14   ar
    17    21    20    1
    18    20    18   ar
    19    14    15    1
    20    14    16   ar
    21    18    16   ar
    22    18    19    1
    23    16    17    1
