@<TRIPOS>MOLECULE
2
 23 23 0 0 0
SMALL
GASTEIGER

@<TRIPOS>ATOM
      1 SI          1.7536   -2.5147    5.0427 Si      1  UNL1        0.0000
      2 C           2.9119   -1.1079    4.6018 C.3     1  UNL1        0.0000
      3 H           2.3130   -0.1871    4.5667 H       1  UNL1        0.0000
      4 H           3.2180   -1.2947    3.5666 H       1  UNL1        0.0000
      5 C           2.6774   -4.1962    5.1007 C.3     1  UNL1        0.0000
      6 H           3.5752   -4.1384    5.7087 H       1  UNL1        0.0000
      7 H           2.9716   -4.5136    4.1046 H       1  UNL1        0.0000
      8 H           2.0484   -4.9774    5.5150 H       1  UNL1        0.0000
      9 C           0.8364   -2.2484    6.7041 C.3     1  UNL1        0.0000
     10 H           1.5276   -2.2019    7.5385 H       1  UNL1        0.0000
     11 H           0.1404   -3.0574    6.9012 H       1  UNL1        0.0000
     12 H           0.2641   -1.3255    6.6912 H       1  UNL1        0.0000
     13 C           0.3832   -2.7551    3.7291 C.ar    1  UNL1        0.0000
     14 C           0.3274   -1.9442    2.6004 C.ar    1  UNL1        0.0000
     15 H           1.0649   -1.1649    2.4721 H       1  UNL1        0.0000
     16 C          -0.6502   -2.1139    1.6363 C.ar    1  UNL1        0.0000
     17 H          -0.6700   -1.4691    0.7683 H       1  UNL1        0.0000
     18 C          -1.6023   -3.1078    1.7821 C.ar    1  UNL1        0.0000
     19 H          -2.3686   -3.2441    1.0318 H       1  UNL1        0.0000
     20 C          -1.5652   -3.9276    2.8974 C.ar    1  UNL1        0.0000
     21 H          -2.3049   -4.7074    3.0185 H       1  UNL1        0.0000
     22 C          -0.5827   -3.7491    3.8543 C.ar    1  UNL1        0.0000
     23 H          -0.5642   -4.3976    4.7190 H       1  UNL1        0.0000
@<TRIPOS>BOND
     1    17    16    1
     2    19    18    1
     3    16    18   ar
     4    16    14   ar
     5    18    20   ar
     6    15    14    1
     7    14    13   ar
     8    20    21    1
     9    20    22   ar
    10     4     2    1
    11    13    22   ar
    12    13     1    1
    13    22    23    1
    14     7     5    1
    15     3     2    1
    16     2     1    1
    17     1     5    1
    18     1     9    1
    19     5     8    1
    20     5     6    1
    21    12     9    1
    22     9    11    1
    23     9    10    1
