@<TRIPOS>MOLECULE
2
 16 15 0 0 0
SMALL
GASTEIGER

@<TRIPOS>ATOM
      1 SI         -0.9895   -5.7932    4.1242 Si      1  UNL1        0.0000
      2 C           0.5337   -4.6830    4.1609 C.3     1  UNL1        0.0000
      3 H           0.7557   -4.4674    5.2200 H       1  UNL1        0.0000
      4 H           0.2459   -3.7124    3.7211 H       1  UNL1        0.0000
      5 C          -0.7539   -7.2637    5.3323 C.3     1  UNL1        0.0000
      6 H          -0.8202   -6.9285    6.3626 H       1  UNL1        0.0000
      7 H           0.2197   -7.7256    5.2002 H       1  UNL1        0.0000
      8 H          -1.5112   -8.0289    5.1916 H       1  UNL1        0.0000
      9 C          -1.3095   -6.4800    2.3553 C.3     1  UNL1        0.0000
     10 H          -0.4021   -6.4545    1.7530 H       1  UNL1        0.0000
     11 H          -2.0591   -5.8900    1.8379 H       1  UNL1        0.0000
     12 H          -1.6669   -7.5051    2.3768 H       1  UNL1        0.0000
     13 C          -2.6227   -4.9225    4.6474 C.3     1  UNL1        0.0000
     14 H          -2.5601   -4.5394    5.6616 H       1  UNL1        0.0000
     15 H          -3.4691   -5.6019    4.6074 H       1  UNL1        0.0000
     16 H          -2.8475   -4.0832    3.9954 H       1  UNL1        0.0000
@<TRIPOS>BOND
     1    10     9    1
     2    11     9    1
     3     9    12    1
     4     9     1    1
     5     4     2    1
     6    16    13    1
     7     1     2    1
     8     1    13    1
     9     1     5    1
    10     2     3    1
    11    15    13    1
    12    13    14    1
    13     8     5    1
    14     7     5    1
    15     5     6    1
