@<TRIPOS>MOLECULE
3
 27 27 0 0 0
SMALL
GASTEIGER

@<TRIPOS>ATOM
      1 N           7.4882   12.9527    4.1637 N.pl3   1  UNL1       -0.3052
      2 N           5.7326   12.5796    2.9774 N.pl3   1  UNL1       -0.3052
      3 C           6.9181   12.0191    3.3554 C.3     1  UNL1        0.1869
      4 C           6.6647   14.0528    4.3147 C.2     1  UNL1        0.0220
      5 C           5.5650   13.8241    3.5551 C.2     1  UNL1        0.0220
      6 C           6.9664   15.2144    5.1973 C.3     1  UNL1       -0.0251
      7 H           6.0453   15.5968    5.6323 H       1  UNL1        0.0290
      8 H           7.4382   16.0262    4.6418 H       1  UNL1        0.0290
      9 H           7.6316   14.9209    6.0052 H       1  UNL1        0.0290
     10 C           4.3848   14.7026    3.3321 C.3     1  UNL1       -0.0251
     11 H           3.5239   14.3656    3.9110 H       1  UNL1        0.0290
     12 H           4.1060   14.7173    2.2799 H       1  UNL1        0.0290
     13 H           4.6232   15.7181    3.6374 H       1  UNL1        0.0290
     14 C           8.8515   12.8957    4.6135 C.3     1  UNL1        0.0113
     15 H           9.1855   11.8893    4.3752 H       1  UNL1        0.0461
     16 H           8.8983   13.0560    5.6953 H       1  UNL1        0.0461
     17 C           9.7400   13.9039    3.8881 C.3     1  UNL1       -0.0493
     18 H           9.6613   13.7508    2.8157 H       1  UNL1        0.0245
     19 H          10.7748   13.7544    4.1844 H       1  UNL1        0.0245
     20 H           9.4625   14.9296    4.1146 H       1  UNL1        0.0245
     21 C           4.9255   12.0610    1.9088 C.3     1  UNL1        0.0113
     22 H           5.4757   11.1894    1.5543 H       1  UNL1        0.0461
     23 H           4.8782   12.8050    1.1044 H       1  UNL1        0.0461
     24 C           3.5103   11.6601    2.3138 C.3     1  UNL1       -0.0493
     25 H           3.5387   10.9767    3.1541 H       1  UNL1        0.0245
     26 H           3.0266   11.1596    1.4789 H       1  UNL1        0.0245
     27 H           2.9100   12.5227    2.5872 H       1  UNL1        0.0245
@<TRIPOS>BOND
     1    23    21    1
     2    26    24    1
     3    22    21    1
     4    21    24    1
     5    21     2    1
     6    12    10    1
     7    24    27    1
     8    24    25    1
     9    18    17    1
    10     2     3    1
    11     2     5    1
    12    10     5    1
    13    10    13    1
    14    10    11    1
    15     3     1    1
    16     5     4    2
    17    17    20    1
    18    17    19    1
    19    17    14    1
    20     1     4    1
    21     1    14    1
    22     4     6    1
    23    15    14    1
    24    14    16    1
    25     8     6    1
    26     6     7    1
    27     6     9    1
