@<TRIPOS>MOLECULE
3
 27 27 0 0 0
SMALL
GASTEIGER

@<TRIPOS>ATOM
      1 N           5.0761    9.4601    4.3134 N.pl3   1  UNL1       -0.3052
      2 N           5.4243    8.6474    2.3524 N.pl3   1  UNL1       -0.3052
      3 C           5.9178    9.5339    3.2535 C.3     1  UNL1        0.1869
      4 C           4.0846    8.5167    4.0866 C.2     1  UNL1        0.0220
      5 C           4.3157    7.9960    2.8529 C.2     1  UNL1        0.0220
      6 C           2.9895    8.2125    5.0483 C.3     1  UNL1       -0.0251
      7 H           2.1253    7.8256    4.5134 H       1  UNL1        0.0290
      8 H           2.6879    9.1089    5.5869 H       1  UNL1        0.0290
      9 H           3.2987    7.4634    5.7791 H       1  UNL1        0.0290
     10 C           3.5795    6.9322    2.1181 C.3     1  UNL1       -0.0251
     11 H           3.0346    6.3046    2.8190 H       1  UNL1        0.0290
     12 H           4.2733    6.3059    1.5609 H       1  UNL1        0.0290
     13 H           2.8630    7.3589    1.4142 H       1  UNL1        0.0290
     14 C           5.2382   10.2686    5.4903 C.3     1  UNL1        0.0113
     15 H           4.3059   10.8066    5.7008 H       1  UNL1        0.0461
     16 H           6.0180   10.9888    5.2335 H       1  UNL1        0.0461
     17 C           5.6639    9.4744    6.7225 C.3     1  UNL1       -0.0493
     18 H           4.9151    8.7380    7.0006 H       1  UNL1        0.0245
     19 H           5.8061   10.1536    7.5590 H       1  UNL1        0.0245
     20 H           6.6016    8.9632    6.5284 H       1  UNL1        0.0245
     21 C           6.1065    8.4044    1.1106 C.3     1  UNL1        0.0113
     22 H           6.3296    7.3394    1.0153 H       1  UNL1        0.0461
     23 H           7.0598    8.9410    1.1874 H       1  UNL1        0.0461
     24 C           5.3327    8.8729   -0.1184 C.3     1  UNL1       -0.0493
     25 H           4.3755    8.3641   -0.1989 H       1  UNL1        0.0245
     26 H           5.9127    8.6532   -1.0108 H       1  UNL1        0.0245
     27 H           5.1526    9.9434   -0.0813 H       1  UNL1        0.0245
@<TRIPOS>BOND
     1    26    24    1
     2    25    24    1
     3    24    27    1
     4    24    21    1
     5    22    21    1
     6    21    23    1
     7    21     2    1
     8    13    10    1
     9    12    10    1
    10    10    11    1
    11    10     5    1
    12     2     5    1
    13     2     3    1
    14     5     4    2
    15     3     1    1
    16     4     1    1
    17     4     6    1
    18     1    14    1
    19     7     6    1
    20     6     8    1
    21     6     9    1
    22    16    14    1
    23    14    15    1
    24    14    17    1
    25    20    17    1
    26    17    18    1
    27    17    19    1
