@<TRIPOS>MOLECULE
2
 69 71 0 0 0
SMALL
GASTEIGER

@<TRIPOS>ATOM
      1 N           7.8875   22.3479   21.2253 N.pl3   1  UNL1       -0.2358
      2 C           8.2807   22.1862   20.1371 C.3     1  UNL1        0.1355
      3 C           7.4568   22.4873   22.5044 C.ar    1  UNL1        0.0640
      4 C           6.9009   23.7072   22.9134 C.ar    1  UNL1        0.0058
      5 C           6.4936   23.8249   24.2344 C.ar    1  UNL1       -0.0522
      6 H           6.0805   24.7619   24.5752 H       1  UNL1        0.0624
      7 C           6.6285   22.7640   25.1144 C.ar    1  UNL1       -0.0605
      8 H           6.3068   22.8747   26.1391 H       1  UNL1        0.0618
      9 C           7.1905   21.5693   24.6961 C.ar    1  UNL1       -0.0522
     10 H           7.3241   20.7559   25.3940 H       1  UNL1        0.0624
     11 C           7.6176   21.4114   23.3857 C.ar    1  UNL1        0.0058
     12 C           6.8070   24.8167   21.9342 C.ar    1  UNL1       -0.0092
     13 C           7.9806   25.4619   21.5232 C.ar    1  UNL1       -0.0368
     14 C           7.8987   26.4398   20.5421 C.ar    1  UNL1       -0.0577
     15 H           8.7914   26.9481   20.2129 H       1  UNL1        0.0621
     16 C           6.6829   26.7783   19.9811 C.ar    1  UNL1       -0.0612
     17 H           6.6356   27.5312   19.2079 H       1  UNL1        0.0618
     18 C           5.5249   26.1727   20.4285 C.ar    1  UNL1       -0.0577
     19 H           4.5766   26.4731   20.0103 H       1  UNL1        0.0621
     20 C           5.5650   25.1883   21.4071 C.ar    1  UNL1       -0.0368
     21 C           4.2758   24.5922   21.9248 C.3     1  UNL1       -0.0209
     22 H           4.5112   23.7009   22.5150 H       1  UNL1        0.0344
     23 C           3.5865   25.6120   22.8385 C.3     1  UNL1       -0.0586
     24 H           3.3152   26.5021   22.2750 H       1  UNL1        0.0235
     25 H           4.2426   25.9141   23.6517 H       1  UNL1        0.0235
     26 H           2.6820   25.1838   23.2647 H       1  UNL1        0.0235
     27 C           3.3237   24.1699   20.8060 C.3     1  UNL1       -0.0586
     28 H           2.9543   25.0285   20.2512 H       1  UNL1        0.0235
     29 H           2.4669   23.6530   21.2326 H       1  UNL1        0.0235
     30 H           3.8213   23.4954   20.1163 H       1  UNL1        0.0235
     31 C           9.3042   25.2000   22.2093 C.3     1  UNL1       -0.0209
     32 H           9.2219   24.2995   22.8258 H       1  UNL1        0.0344
     33 C           9.6114   26.3742   23.1451 C.3     1  UNL1       -0.0586
     34 H          10.5422   26.1970   23.6796 H       1  UNL1        0.0235
     35 H           8.8121   26.4974   23.8730 H       1  UNL1        0.0235
     36 H           9.7064   27.2988   22.5806 H       1  UNL1        0.0235
     37 C          10.4538   24.9862   21.2259 C.3     1  UNL1       -0.0586
     38 H          10.2262   24.1670   20.5440 H       1  UNL1        0.0235
     39 H          11.3637   24.7372   21.7677 H       1  UNL1        0.0235
     40 H          10.6458   25.8784   20.6360 H       1  UNL1        0.0235
     41 C           8.3032   20.1833   22.9114 C.ar    1  UNL1       -0.0092
     42 C           7.5856   19.1806   22.2494 C.ar    1  UNL1       -0.0368
     43 C           8.2724   18.0632   21.7964 C.ar    1  UNL1       -0.0577
     44 H           7.7420   17.2737   21.2897 H       1  UNL1        0.0621
     45 C           9.6380   17.9487   21.9765 C.ar    1  UNL1       -0.0612
     46 H          10.1583   17.0769   21.6068 H       1  UNL1        0.0618
     47 C          10.3365   18.9432   22.6307 C.ar    1  UNL1       -0.0577
     48 H          11.4021   18.8413   22.7702 H       1  UNL1        0.0621
     49 C           9.6820   20.0704   23.1090 C.ar    1  UNL1       -0.0368
     50 C           6.0871   19.2975   22.0824 C.3     1  UNL1       -0.0209
     51 H           5.8332   20.3558   21.9537 H       1  UNL1        0.0344
     52 C           5.3923   18.7869   23.3498 C.3     1  UNL1       -0.0586
     53 H           4.3126   18.8412   23.2300 H       1  UNL1        0.0235
     54 H           5.6730   19.3823   24.2150 H       1  UNL1        0.0235
     55 H           5.6694   17.7513   23.5380 H       1  UNL1        0.0235
     56 C           5.5540   18.5418   20.8660 C.3     1  UNL1       -0.0586
     57 H           6.1472   18.7611   19.9818 H       1  UNL1        0.0235
     58 H           4.5294   18.8480   20.6688 H       1  UNL1        0.0235
     59 H           5.5577   17.4674   21.0359 H       1  UNL1        0.0235
     60 C          10.4641   21.1369   23.8431 C.3     1  UNL1       -0.0209
     61 H           9.7932   21.9681   24.0847 H       1  UNL1        0.0344
     62 C          11.0079   20.5790   25.1607 C.3     1  UNL1       -0.0586
     63 H          10.1938   20.2093   25.7807 H       1  UNL1        0.0235
     64 H          11.5347   21.3568   25.7096 H       1  UNL1        0.0235
     65 H          11.6980   19.7589   24.9781 H       1  UNL1        0.0235
     66 C          11.5971   21.6892   22.9776 C.3     1  UNL1       -0.0586
     67 H          12.3431   20.9265   22.7709 H       1  UNL1        0.0235
     68 H          12.0880   22.5157   23.4878 H       1  UNL1        0.0235
     69 H          11.2071   22.0501   22.0289 H       1  UNL1        0.0235
@<TRIPOS>BOND
     1    17    16    1
     2    16    18   ar
     3    16    14   ar
     4    57    56    1
     5    19    18    1
     6    30    27    1
     7     2     1    1
     8    15    14    1
     9    28    27    1
    10    18    20   ar
    11    14    13   ar
    12    38    37    1
    13    40    37    1
    14    58    56    1
    15    27    29    1
    16    27    21    1
    17    56    59    1
    18    56    50    1
    19     1     3    1
    20    37    39    1
    21    37    31    1
    22    44    43    1
    23    20    21    1
    24    20    12   ar
    25    13    12   ar
    26    13    31    1
    27    46    45    1
    28    43    45   ar
    29    43    42   ar
    30    21    22    1
    31    21    23    1
    32    12     4    1
    33    51    50    1
    34    45    47   ar
    35    69    66    1
    36    50    42    1
    37    50    52    1
    38    31    32    1
    39    31    33    1
    40    42    41   ar
    41    24    23    1
    42     3     4   ar
    43     3    11   ar
    44    36    33    1
    45    47    48    1
    46    47    49   ar
    47    67    66    1
    48    23    26    1
    49    23    25    1
    50    41    49   ar
    51    41    11    1
    52     4     5   ar
    53    66    68    1
    54    66    60    1
    55    49    60    1
    56    33    34    1
    57    33    35    1
    58    53    52    1
    59    52    55    1
    60    52    54    1
    61    11     9   ar
    62    60    61    1
    63    60    62    1
    64     5     6    1
    65     5     7   ar
    66     9     7   ar
    67     9    10    1
    68    65    62    1
    69     7     8    1
    70    62    64    1
    71    62    63    1
