@<TRIPOS>MOLECULE
2
 69 71 0 0 0
SMALL
GASTEIGER

@<TRIPOS>ATOM
      1 N           9.5699   21.4977   15.4860 N.pl3   1  UNL1       -0.2358
      2 C           9.3067   21.6615   16.6142 C.3     1  UNL1        0.1355
      3 C          10.0571   21.3539   14.2254 C.ar    1  UNL1        0.0640
      4 C          10.3521   22.5033   13.4804 C.ar    1  UNL1        0.0058
      5 C          10.9196   22.3510   12.2240 C.ar    1  UNL1       -0.0522
      6 H          11.1546   23.2322   11.6460 H       1  UNL1        0.0624
      7 C          11.1833   21.0885   11.7200 C.ar    1  UNL1       -0.0605
      8 H          11.6346   20.9828   10.7449 H       1  UNL1        0.0618
      9 C          10.8581   19.9605   12.4540 C.ar    1  UNL1       -0.0522
     10 H          11.0472   18.9767   12.0510 H       1  UNL1        0.0624
     11 C          10.2813   20.0703   13.7120 C.ar    1  UNL1        0.0058
     12 C          10.0368   23.8354   14.0521 C.ar    1  UNL1       -0.0092
     13 C          10.9662   24.4732   14.8767 C.ar    1  UNL1       -0.0368
     14 C          10.6294   25.6946   15.4431 C.ar    1  UNL1       -0.0577
     15 H          11.3342   26.2022   16.0839 H       1  UNL1        0.0621
     16 C           9.3963   26.2683   15.2007 C.ar    1  UNL1       -0.0612
     17 H           9.1419   27.2131   15.6580 H       1  UNL1        0.0618
     18 C           8.4928   25.6397   14.3657 C.ar    1  UNL1       -0.0577
     19 H           7.5397   26.1070   14.1679 H       1  UNL1        0.0621
     20 C           8.7976   24.4202   13.7768 C.ar    1  UNL1       -0.0368
     21 C          12.3300   23.8697   15.1258 C.3     1  UNL1       -0.0209
     22 H          12.3845   22.8994   14.6200 H       1  UNL1        0.0344
     23 C          13.4208   24.7655   14.5342 C.3     1  UNL1       -0.0586
     24 H          13.2538   24.9113   13.4691 H       1  UNL1        0.0235
     25 H          14.3981   24.3077   14.6716 H       1  UNL1        0.0235
     26 H          13.4265   25.7396   15.0167 H       1  UNL1        0.0235
     27 C          12.5661   23.6358   16.6177 C.3     1  UNL1       -0.0586
     28 H          12.5837   24.5745   17.1656 H       1  UNL1        0.0235
     29 H          13.5163   23.1298   16.7756 H       1  UNL1        0.0235
     30 H          11.7713   23.0145   17.0302 H       1  UNL1        0.0235
     31 C           7.8234   23.7736   12.8183 C.3     1  UNL1       -0.0209
     32 H           8.2192   22.7986   12.5159 H       1  UNL1        0.0344
     33 C           7.6911   24.6374   11.5603 C.3     1  UNL1       -0.0586
     34 H           7.0369   24.1523   10.8392 H       1  UNL1        0.0235
     35 H           8.6644   24.7884   11.0976 H       1  UNL1        0.0235
     36 H           7.2733   25.6115   11.8029 H       1  UNL1        0.0235
     37 C           6.4570   23.5394   13.4613 C.3     1  UNL1       -0.0586
     38 H           5.9952   24.4764   13.7616 H       1  UNL1        0.0235
     39 H           6.5518   22.9020   14.3364 H       1  UNL1        0.0235
     40 H           5.7943   23.0468   12.7532 H       1  UNL1        0.0235
     41 C           9.8756   18.8792   14.4957 C.ar    1  UNL1       -0.0092
     42 C           8.7097   18.1950   14.1378 C.ar    1  UNL1       -0.0368
     43 C           8.3189   17.1029   14.9007 C.ar    1  UNL1       -0.0577
     44 H           7.4210   16.5632   14.6424 H       1  UNL1        0.0621
     45 C           9.0648   16.6964   15.9888 C.ar    1  UNL1       -0.0612
     46 H           8.7448   15.8489   16.5772 H       1  UNL1        0.0618
     47 C          10.2278   17.3649   16.3207 C.ar    1  UNL1       -0.0577
     48 H          10.8096   17.0237   17.1621 H       1  UNL1        0.0621
     49 C          10.6479   18.4645   15.5865 C.ar    1  UNL1       -0.0368
     50 C           7.8977   18.5946   12.9262 C.3     1  UNL1       -0.0209
     51 H           8.2734   19.5502   12.5466 H       1  UNL1        0.0344
     52 C           8.0686   17.5435   11.8249 C.3     1  UNL1       -0.0586
     53 H           7.6924   16.5784   12.1562 H       1  UNL1        0.0235
     54 H           9.1178   17.4271   11.5614 H       1  UNL1        0.0235
     55 H           7.5197   17.8402   10.9337 H       1  UNL1        0.0235
     56 C           6.4174   18.7805   13.2593 C.3     1  UNL1       -0.0586
     57 H           5.8904   19.1704   12.3909 H       1  UNL1        0.0235
     58 H           6.2962   19.4824   14.0795 H       1  UNL1        0.0235
     59 H           5.9531   17.8390   13.5402 H       1  UNL1        0.0235
     60 C          11.9611   19.1474   15.9004 C.3     1  UNL1       -0.0209
     61 H          11.9072   20.1909   15.5734 H       1  UNL1        0.0344
     62 C          13.0795   18.4639   15.1063 C.3     1  UNL1       -0.0586
     63 H          13.1383   17.4099   15.3697 H       1  UNL1        0.0235
     64 H          14.0373   18.9312   15.3254 H       1  UNL1        0.0235
     65 H          12.8926   18.5421   14.0375 H       1  UNL1        0.0235
     66 C          12.2933   19.1460   17.3918 C.3     1  UNL1       -0.0586
     67 H          11.4224   19.4378   17.9769 H       1  UNL1        0.0235
     68 H          13.0951   19.8528   17.5952 H       1  UNL1        0.0235
     69 H          12.6212   18.1639   17.7237 H       1  UNL1        0.0235
@<TRIPOS>BOND
     1     8     7    1
     2    34    33    1
     3    55    52    1
     4    35    33    1
     5    33    36    1
     6    33    31    1
     7    54    52    1
     8     6     5    1
     9     7     5   ar
    10     7     9   ar
    11    52    53    1
    12    52    50    1
    13    10     9    1
    14     5     4   ar
    15    57    56    1
    16     9    11   ar
    17    32    31    1
    18    51    50    1
    19    40    37    1
    20    31    37    1
    21    31    20    1
    22    50    56    1
    23    50    42    1
    24    56    59    1
    25    56    58    1
    26    37    38    1
    27    37    39    1
    28    24    23    1
    29     4    12    1
    30     4     3   ar
    31    11     3   ar
    32    11    41    1
    33    20    12   ar
    34    20    18   ar
    35    65    62    1
    36    12    13   ar
    37    42    41   ar
    38    42    43   ar
    39    19    18    1
    40     3     1    1
    41    18    16   ar
    42    41    49   ar
    43    23    25    1
    44    23    26    1
    45    23    21    1
    46    22    21    1
    47    44    43    1
    48    13    21    1
    49    13    14   ar
    50    43    45   ar
    51    62    64    1
    52    62    63    1
    53    62    60    1
    54    21    27    1
    55    16    14   ar
    56    16    17    1
    57    14    15    1
    58     1     2    1
    59    61    60    1
    60    49    60    1
    61    49    47   ar
    62    60    66    1
    63    45    47   ar
    64    45    46    1
    65    47    48    1
    66    27    29    1
    67    27    30    1
    68    27    28    1
    69    66    68    1
    70    66    69    1
    71    66    67    1
