@<TRIPOS>MOLECULE
1
 14 14 0 0 0
SMALL
GASTEIGER

@<TRIPOS>ATOM
      1 C           2.5055    1.2010    8.8970 C.3     1  UNL1       -0.0237
      2 H           3.0995    1.6458    8.0845 H       1  UNL1        0.0316
      3 H           2.6432    1.7821    9.8252 H       1  UNL1        0.0316
      4 C           2.9073   -0.1939    9.1139 C.ar    1  UNL1       -0.0470
      5 C           2.6188   -0.8507   10.3221 C.ar    1  UNL1       -0.0586
      6 H           2.1163   -0.3045   11.1136 H       1  UNL1        0.0620
      7 C           2.9695   -2.1722   10.5128 C.ar    1  UNL1       -0.0615
      8 H           2.7375   -2.6586   11.4500 H       1  UNL1        0.0618
      9 C           3.6246   -2.8797    9.5148 C.ar    1  UNL1       -0.0617
     10 H           3.8974   -3.9130    9.6682 H       1  UNL1        0.0618
     11 C           3.9350   -2.2441    8.3232 C.ar    1  UNL1       -0.0615
     12 H           4.4566   -2.7834    7.5449 H       1  UNL1        0.0618
     13 C           3.5869   -0.9217    8.1259 C.ar    1  UNL1       -0.0586
     14 H           3.8407   -0.4337    7.1916 H       1  UNL1        0.0620
@<TRIPOS>BOND
     1    14    13    1
     2    12    11    1
     3     2     1    1
     4    13    11   ar
     5    13     4   ar
     6    11     9   ar
     7     1     4    1
     8     1     3    1
     9     4     5   ar
    10     9    10    1
    11     9     7   ar
    12     5     7   ar
    13     5     6    1
    14     7     8    1
