@<TRIPOS>MOLECULE
2
 16 15 0 0 0
SMALL
GASTEIGER

@<TRIPOS>ATOM
      1 SI          7.5366    9.5348   -1.1564 Si      1  UNL1        0.0000
      2 C           7.2652    8.1238    0.0639 C.3     1  UNL1        0.0000
      3 H           8.0935    7.4103   -0.0460 H       1  UNL1        0.0000
      4 H           6.3669    7.5780   -0.2457 H       1  UNL1        0.0000
      5 C           7.6822    9.0264   -2.9994 C.3     1  UNL1        0.0000
      6 H           8.5229    8.3579   -3.1570 H       1  UNL1        0.0000
      7 H           7.8235    9.8875   -3.6454 H       1  UNL1        0.0000
      8 H           6.7882    8.5095   -3.3336 H       1  UNL1        0.0000
      9 C           6.0352   10.7252   -1.0381 C.3     1  UNL1        0.0000
     10 H           5.1642   10.2984   -1.5255 H       1  UNL1        0.0000
     11 H           6.2386   11.6777   -1.5174 H       1  UNL1        0.0000
     12 H           5.7669   10.9261   -0.0011 H       1  UNL1        0.0000
     13 C           9.1389   10.4869   -0.7112 C.3     1  UNL1        0.0000
     14 H           9.2432   10.5969    0.3655 H       1  UNL1        0.0000
     15 H           9.1519   11.4790   -1.1524 H       1  UNL1        0.0000
     16 H          10.0160    9.9621   -1.0772 H       1  UNL1        0.0000
@<TRIPOS>BOND
     1     7     5    1
     2     8     5    1
     3     6     5    1
     4     5     1    1
     5    10     9    1
     6    11     9    1
     7     1     9    1
     8     1    13    1
     9     1     2    1
    10    15    13    1
    11    16    13    1
    12     9    12    1
    13    13    14    1
    14     4     2    1
    15     3     2    1
