@<TRIPOS>MOLECULE
1
 4 3 0 0 0
SMALL
GASTEIGER

@<TRIPOS>ATOM
      1 C           2.0535    3.4695    0.8188 C.3     1  UNL1       -0.0681
      2 H           1.0683    3.0375    0.5769 H       1  UNL1        0.0227
      3 H           2.6229    3.4745   -0.1245 H       1  UNL1        0.0227
      4 H           1.8866    4.5159    1.1055 H       1  UNL1        0.0227
@<TRIPOS>BOND
     1     3     1    1
     2     2     1    1
     3     1     4    1
