@<TRIPOS>MOLECULE
1
 41 42 0 0 0
SMALL
GASTEIGER

@<TRIPOS>ATOM
      1 C          -3.6860   -0.1390   21.3698 C.3     1  UNL1        0.0000
      2 C          -4.8351   -0.8449   21.1968 C.2     1  UNL1        0.0000
      3 C          -5.7560   -1.2861   20.1846 C.ar    1  UNL1        0.0000
      4 C          -5.3060   -1.9709   19.0540 C.ar    1  UNL1        0.0000
      5 H          -4.2492   -2.1612   18.9438 H       1  UNL1        0.0000
      6 C          -6.2007   -2.4062   18.0959 C.ar    1  UNL1        0.0000
      7 H          -5.8403   -2.9388   17.2272 H       1  UNL1        0.0000
      8 C          -7.5563   -2.1570   18.2391 C.ar    1  UNL1        0.0000
      9 H          -8.2531   -2.4921   17.4849 H       1  UNL1        0.0000
     10 C          -8.0150   -1.4778   19.3568 C.ar    1  UNL1        0.0000
     11 H          -9.0720   -1.2830   19.4735 H       1  UNL1        0.0000
     12 C          -7.1269   -1.0550   20.3266 C.ar    1  UNL1        0.0000
     13 H          -7.4831   -0.5255   21.2003 H       1  UNL1        0.0000
     14 B          -4.2835   -0.7413   22.5964 B       1  UNL1        0.0000
     15 N          -4.3046   -1.0349   23.9778 N.3     1  UNL1        0.0000
     16 SI         -3.0927   -0.1948   24.9566 Si      1  UNL1        0.0000
     17 C          -1.4366   -1.1288   24.8356 C.3     1  UNL1        0.0000
     18 H          -1.5257   -2.1537   25.1818 H       1  UNL1        0.0000
     19 H          -0.6627   -0.6472   25.4250 H       1  UNL1        0.0000
     20 H          -1.0956   -1.1583   23.8055 H       1  UNL1        0.0000
     21 C          -2.9172    1.5773   24.2824 C.3     1  UNL1        0.0000
     22 H          -2.7223    1.5564   23.2143 H       1  UNL1        0.0000
     23 H          -2.0992    2.1039   24.7630 H       1  UNL1        0.0000
     24 H          -3.8215    2.1553   24.4466 H       1  UNL1        0.0000
     25 C          -3.6558   -0.0516   26.7720 C.3     1  UNL1        0.0000
     26 H          -4.5843    0.5019   26.8612 H       1  UNL1        0.0000
     27 H          -2.9041    0.4789   27.3478 H       1  UNL1        0.0000
     28 H          -3.8003   -1.0179   27.2401 H       1  UNL1        0.0000
     29 SI         -5.3740   -2.2911   24.6009 Si      1  UNL1        0.0000
     30 C          -6.7344   -1.5112   25.6926 C.3     1  UNL1        0.0000
     31 H          -6.3571   -1.2232   26.6674 H       1  UNL1        0.0000
     32 H          -7.5463   -2.2140   25.8535 H       1  UNL1        0.0000
     33 H          -7.1548   -0.6248   25.2273 H       1  UNL1        0.0000
     34 C          -4.3562   -3.5656   25.5901 C.3     1  UNL1        0.0000
     35 H          -3.6336   -4.0656   24.9526 H       1  UNL1        0.0000
     36 H          -5.0028   -4.3284   26.0127 H       1  UNL1        0.0000
     37 H          -3.8100   -3.1102   26.4084 H       1  UNL1        0.0000
     38 C          -6.1993   -3.2115   23.1540 C.3     1  UNL1        0.0000
     39 H          -6.9052   -2.5822   22.6245 H       1  UNL1        0.0000
     40 H          -6.7396   -4.0839   23.5085 H       1  UNL1        0.0000
     41 H          -5.4634   -3.5488   22.4318 H       1  UNL1        0.0000
@<TRIPOS>BOND
     1     7     6    1
     2     9     8    1
     3     6     8   ar
     4     6     4   ar
     5     8    10   ar
     6     5     4    1
     7     4     3   ar
     8    10    11    1
     9    10    12   ar
    10     3    12   ar
    11     3     2    1
    12    12    13    1
    13     2     1    1
    14     2    14    2
    15     1    14    1
    16    41    38    1
    17    14    15    1
    18    39    38    1
    19    38    40    1
    20    38    29    1
    21    22    21    1
    22    20    17    1
    23    15    29    1
    24    15    16    1
    25    21    24    1
    26    21    23    1
    27    21    16    1
    28    29    34    1
    29    29    30    1
    30    17    16    1
    31    17    18    1
    32    17    19    1
    33    35    34    1
    34    16    25    1
    35    33    30    1
    36    34    36    1
    37    34    37    1
    38    30    32    1
    39    30    31    1
    40    25    26    1
    41    25    28    1
    42    25    27    1
