@<TRIPOS>MOLECULE
1
 41 42 0 0 0
SMALL
GASTEIGER

@<TRIPOS>ATOM
      1 C          -1.9901    1.5572   11.2402 C.3     1  UNL1        0.0000
      2 C          -2.7631    0.8333   10.3826 C.2     1  UNL1        0.0000
      3 C          -3.6216    0.8397    9.2354 C.ar    1  UNL1        0.0000
      4 C          -3.0960    0.8129    7.9382 C.ar    1  UNL1        0.0000
      5 H          -2.0231    0.8228    7.8044 H       1  UNL1        0.0000
      6 C          -3.9285    0.7557    6.8376 C.ar    1  UNL1        0.0000
      7 H          -3.5008    0.7401    5.8446 H       1  UNL1        0.0000
      8 C          -5.3040    0.7168    6.9985 C.ar    1  UNL1        0.0000
      9 H          -5.9529    0.6769    6.1362 H       1  UNL1        0.0000
     10 C          -5.8389    0.7143    8.2773 C.ar    1  UNL1        0.0000
     11 H          -6.9105    0.6667    8.4130 H       1  UNL1        0.0000
     12 C          -5.0117    0.7663    9.3810 C.ar    1  UNL1        0.0000
     13 H          -5.4340    0.7437   10.3762 H       1  UNL1        0.0000
     14 B          -2.0271    0.0877   11.4670 B       1  UNL1        0.0000
     15 N          -1.6820   -1.1594   12.0518 N.3     1  UNL1        0.0000
     16 SI         -0.6745   -1.0980   13.5000 Si      1  UNL1        0.0000
     17 C          -1.1347    0.4741   14.4639 C.3     1  UNL1        0.0000
     18 H          -1.2334    1.3148   13.7846 H       1  UNL1        0.0000
     19 H          -0.3774    0.7235   15.1999 H       1  UNL1        0.0000
     20 H          -2.0766    0.3526   14.9903 H       1  UNL1        0.0000
     21 C           1.1565   -1.0468   12.9649 C.3     1  UNL1        0.0000
     22 H           1.3906   -1.8318   12.2519 H       1  UNL1        0.0000
     23 H           1.8240   -1.1597   13.8134 H       1  UNL1        0.0000
     24 H           1.3814   -0.0954   12.4932 H       1  UNL1        0.0000
     25 C          -1.0020   -2.5797   14.6562 C.3     1  UNL1        0.0000
     26 H          -2.0426   -2.8848   14.6346 H       1  UNL1        0.0000
     27 H          -0.7597   -2.3107   15.6796 H       1  UNL1        0.0000
     28 H          -0.3967   -3.4403   14.3986 H       1  UNL1        0.0000
     29 SI         -2.2326   -2.5997   11.1992 Si      1  UNL1        0.0000
     30 C          -1.3254   -4.1735   11.7679 C.3     1  UNL1        0.0000
     31 H          -0.2630   -4.0022   11.8995 H       1  UNL1        0.0000
     32 H          -1.4426   -4.9549   11.0236 H       1  UNL1        0.0000
     33 H          -1.7198   -4.5560   12.7012 H       1  UNL1        0.0000
     34 C          -1.8790   -2.4002    9.3340 C.3     1  UNL1        0.0000
     35 H          -2.5065   -1.6331    8.8942 H       1  UNL1        0.0000
     36 H          -2.0673   -3.3239    8.7953 H       1  UNL1        0.0000
     37 H          -0.8449   -2.1199    9.1562 H       1  UNL1        0.0000
     38 C          -4.1118   -2.7844   11.4820 C.3     1  UNL1        0.0000
     39 H          -4.3519   -2.8677   12.5379 H       1  UNL1        0.0000
     40 H          -4.5062   -3.6643   10.9834 H       1  UNL1        0.0000
     41 H          -4.6405   -1.9203   11.0919 H       1  UNL1        0.0000
@<TRIPOS>BOND
     1     7     6    1
     2     9     8    1
     3     6     8   ar
     4     6     4   ar
     5     8    10   ar
     6     5     4    1
     7     4     3   ar
     8    10    11    1
     9    10    12   ar
    10    36    34    1
    11    35    34    1
    12    37    34    1
    13     3    12   ar
    14     3     2    1
    15    34    29    1
    16    12    13    1
    17     2     1    1
    18     2    14    2
    19    40    38    1
    20    32    30    1
    21    41    38    1
    22    29    38    1
    23    29    30    1
    24    29    15    1
    25     1    14    1
    26    14    15    1
    27    38    39    1
    28    30    31    1
    29    30    33    1
    30    15    16    1
    31    22    21    1
    32    24    21    1
    33    21    16    1
    34    21    23    1
    35    16    17    1
    36    16    25    1
    37    18    17    1
    38    28    25    1
    39    17    20    1
    40    17    19    1
    41    26    25    1
    42    25    27    1
