@<TRIPOS>MOLECULE
1
 11 11 0 0 0
SMALL
GASTEIGER

@<TRIPOS>ATOM
      1 C           3.1874    7.7545    6.7449 C.ar    1  UNL1       -0.0179
      2 C           2.0879    8.5608    6.3879 C.ar    1  UNL1       -0.0540
      3 H           1.1538    8.4606    6.9468 H       1  UNL1        0.0624
      4 C           4.3541    7.9722    5.9945 C.ar    1  UNL1       -0.0540
      5 H           5.2559    7.4017    6.2197 H       1  UNL1        0.0624
      6 C           3.3117    9.6590    4.6380 C.ar    1  UNL1       -0.0617
      7 H           3.3603   10.3814    3.8356 H       1  UNL1        0.0618
      8 C           4.4211    8.8980    4.9620 C.ar    1  UNL1       -0.0612
      9 H           5.3425    9.0306    4.4104 H       1  UNL1        0.0618
     10 C           2.1409    9.4894    5.3576 C.ar    1  UNL1       -0.0612
     11 H           1.2708   10.0863    5.1162 H       1  UNL1        0.0618
@<TRIPOS>BOND
     1     7     6    1
     2     9     8    1
     3     6     8   ar
     4     6    10   ar
     5     8     4   ar
     6    11    10    1
     7    10     2   ar
     8     4     5    1
     9     4     1   ar
    10     2     1   ar
    11     2     3    1
