@<TRIPOS>MOLECULE
1
 11 11 0 0 0
SMALL
GASTEIGER

@<TRIPOS>ATOM
      1 C           3.9328    4.5876    8.1540 C.ar    1  UNL1       -0.0179
      2 C           3.4955    3.4181    8.8038 C.ar    1  UNL1       -0.0540
      3 H           2.5724    3.4422    9.3881 H       1  UNL1        0.0624
      4 C           4.1855    2.2157    8.7363 C.ar    1  UNL1       -0.0612
      5 H           3.8098    1.3427    9.2542 H       1  UNL1        0.0618
      6 C           5.3599    2.1314    8.0085 C.ar    1  UNL1       -0.0617
      7 H           5.9040    1.1991    7.9547 H       1  UNL1        0.0618
      8 C           5.8300    3.2555    7.3522 C.ar    1  UNL1       -0.0612
      9 H           6.7475    3.1989    6.7811 H       1  UNL1        0.0618
     10 C           5.1300    4.4515    7.4302 C.ar    1  UNL1       -0.0540
     11 H           5.5375    5.3124    6.8988 H       1  UNL1        0.0624
@<TRIPOS>BOND
     1     9     8    1
     2    11    10    1
     3     8    10   ar
     4     8     6   ar
     5    10     1   ar
     6     7     6    1
     7     6     4   ar
     8     1     2   ar
     9     4     2   ar
    10     4     5    1
    11     2     3    1
