@<TRIPOS>MOLECULE
1
 4 3 0 0 0
SMALL
GASTEIGER

@<TRIPOS>ATOM
      1 C           8.2138   10.7013    6.9137 C.3     1  UNL1       -0.0681
      2 H           8.6287    9.9345    6.2442 H       1  UNL1        0.0227
      3 H           9.0392   11.3849    7.1621 H       1  UNL1        0.0227
      4 H           7.4800   11.2717    6.3272 H       1  UNL1        0.0227
@<TRIPOS>BOND
     1     2     1    1
     2     4     1    1
     3     1     3    1
