@<TRIPOS>MOLECULE
1
 4 3 0 0 0
SMALL
GASTEIGER

@<TRIPOS>ATOM
      1 C           9.1862    9.0568    9.2147 C.3     1  UNL1       -0.0681
      2 H           9.6790    8.5078    8.3989 H       1  UNL1        0.0227
      3 H           9.0766    8.3515   10.0498 H       1  UNL1        0.0227
      4 H           9.8863    9.8453    9.5332 H       1  UNL1        0.0227
@<TRIPOS>BOND
     1     2     1    1
     2     1     4    1
     3     1     3    1
