@<TRIPOS>MOLECULE
1
 4 3 0 0 0
SMALL
GASTEIGER

@<TRIPOS>ATOM
      1 C           4.0604   -4.0716   12.4447 C.3     1  UNL1       -0.0681
      2 H           3.6235   -3.0763   12.4515 H       1  UNL1        0.0227
      3 H           3.6242   -4.6163   11.6090 H       1  UNL1        0.0227
      4 H           3.7551   -4.5683   13.3659 H       1  UNL1        0.0227
@<TRIPOS>BOND
     1     3     1    1
     2     1     2    1
     3     1     4    1
