@<TRIPOS>MOLECULE
3
 36 38 0 0 0
SMALL
GASTEIGER

@<TRIPOS>ATOM
      1 SI          6.0936   -1.1143    8.9806 Si      1  UNL1        0.0000
      2 N           6.0249   -2.5046    9.9854 N.3     1  UNL1        0.0000
      3 C           5.9811   -3.1724   10.9699 C.3     1  UNL1        0.0000
      4 C           7.4623    0.0592    9.5637 C.ar    1  UNL1        0.0000
      5 C           7.2899    0.8422   10.7018 C.ar    1  UNL1        0.0000
      6 C           8.2687    1.7269   11.1135 C.ar    1  UNL1        0.0000
      7 C           9.4453    1.8439   10.3929 C.ar    1  UNL1        0.0000
      8 C           9.6385    1.0647    9.2652 C.ar    1  UNL1        0.0000
      9 C           8.6545    0.1821    8.8575 C.ar    1  UNL1        0.0000
     10 C           6.4448   -1.7446    7.2367 C.ar    1  UNL1        0.0000
     11 C           6.7573   -3.0792    6.9998 C.ar    1  UNL1        0.0000
     12 C           7.0332   -3.5305    5.7218 C.ar    1  UNL1        0.0000
     13 C           7.0005   -2.6497    4.6539 C.ar    1  UNL1        0.0000
     14 C           6.6887   -1.3179    4.8719 C.ar    1  UNL1        0.0000
     15 C           6.4141   -0.8734    6.1521 C.ar    1  UNL1        0.0000
     16 C           4.4220   -0.2376    9.1247 C.ar    1  UNL1        0.0000
     17 C           4.3049    1.1287    8.8889 C.ar    1  UNL1        0.0000
     18 C           3.0856    1.7712    9.0083 C.ar    1  UNL1        0.0000
     19 C           1.9576    1.0537    9.3704 C.ar    1  UNL1        0.0000
     20 C           2.0575   -0.3065    9.6119 C.ar    1  UNL1        0.0000
     21 C           3.2788   -0.9437    9.4877 C.ar    1  UNL1        0.0000
     22 H           6.3744    0.7621   11.2700 H       1  UNL1        0.0000
     23 H           8.1119    2.3289   11.9970 H       1  UNL1        0.0000
     24 H          10.2080    2.5414   10.7081 H       1  UNL1        0.0000
     25 H          10.5556    1.1501    8.6992 H       1  UNL1        0.0000
     26 H           8.8075   -0.4178    7.9710 H       1  UNL1        0.0000
     27 H           6.7809   -3.7669    7.8326 H       1  UNL1        0.0000
     28 H           7.2744   -4.5710    5.5559 H       1  UNL1        0.0000
     29 H           7.2157   -2.9994    3.6544 H       1  UNL1        0.0000
     30 H           6.6601   -0.6269    4.0412 H       1  UNL1        0.0000
     31 H           6.1705    0.1673    6.3152 H       1  UNL1        0.0000
     32 H           5.1831    1.6985    8.6172 H       1  UNL1        0.0000
     33 H           3.0143    2.8339    8.8231 H       1  UNL1        0.0000
     34 H           1.0049    1.5546    9.4683 H       1  UNL1        0.0000
     35 H           1.1820   -0.8699    9.9009 H       1  UNL1        0.0000
     36 H           3.3546   -2.0028    9.6859 H       1  UNL1        0.0000
@<TRIPOS>BOND
     1    29    13    1
     2    30    14    1
     3    13    14   ar
     4    13    12   ar
     5    14    15   ar
     6    28    12    1
     7    12    11   ar
     8    15    31    1
     9    15    10   ar
    10    11    10   ar
    11    11    27    1
    12    10     1    1
    13    26     9    1
    14    32    17    1
    15    25     8    1
    16    33    18    1
    17     9     8   ar
    18     9     4   ar
    19    17    18   ar
    20    17    16   ar
    21     1    16    1
    22     1     4    1
    23     1     2    1
    24    18    19   ar
    25    16    21   ar
    26     8     7   ar
    27    19    34    1
    28    19    20   ar
    29    21    20   ar
    30    21    36    1
    31     4     5   ar
    32    20    35    1
    33     2     3    1
    34     7    24    1
    35     7     6   ar
    36     5     6   ar
    37     5    22    1
    38     6    23    1
