@<TRIPOS>MOLECULE
2
 16 15 0 0 0
SMALL
GASTEIGER

@<TRIPOS>ATOM
      1 SI          4.3311    4.4937    5.6029 Si      1  UNL1        0.0000
      2 C           2.8662    3.4822    6.2047 C.3     1  UNL1        0.0000
      3 C           5.0870    5.5328    7.0323 C.3     1  UNL1        0.0000
      4 C           3.9928    5.6860    4.1315 C.3     1  UNL1        0.0000
      5 C           5.7635    3.3793    4.9623 C.3     1  UNL1        0.0000
      6 H           2.9879    3.3504    7.2936 H       1  UNL1        0.0000
      7 H           2.9489    2.4848    5.7508 H       1  UNL1        0.0000
      8 H           5.7066    4.9105    7.6707 H       1  UNL1        0.0000
      9 H           5.7139    6.3349    6.6557 H       1  UNL1        0.0000
     10 H           4.3234    5.9803    7.6607 H       1  UNL1        0.0000
     11 H           4.8887    6.2529    3.8935 H       1  UNL1        0.0000
     12 H           3.7209    5.1350    3.2363 H       1  UNL1        0.0000
     13 H           3.2031    6.4013    4.3410 H       1  UNL1        0.0000
     14 H           6.1090    2.6976    5.7335 H       1  UNL1        0.0000
     15 H           5.4453    2.7765    4.1166 H       1  UNL1        0.0000
     16 H           6.6177    3.9664    4.6400 H       1  UNL1        0.0000
@<TRIPOS>BOND
     1    12     4    1
     2    11     4    1
     3    15     5    1
     4     4    13    1
     5     4     1    1
     6    16     5    1
     7     5     1    1
     8     5    14    1
     9     1     2    1
    10     1     3    1
    11     7     2    1
    12     2     6    1
    13     9     3    1
    14     3    10    1
    15     3     8    1
