@<TRIPOS>MOLECULE
1
 38 40 0 0 0
SMALL
GASTEIGER

@<TRIPOS>ATOM
      1 C           7.8181    2.1964    4.9585 C.3     1  UNL1        0.0000
      2 N           7.8137    1.6889    3.7544 N.3     1  UNL1        0.0000
      3 H           8.6482    1.3197    3.2987 H       1  UNL1        0.0000
      4 H           6.9563    1.6326    3.2140 H       1  UNL1        0.0000
      5 SI          9.5522    2.2518    5.7786 Si      1  UNL1        0.0000
      6 C          10.8469    1.5669    4.5683 C.ar    1  UNL1        0.0000
      7 C          10.7185    0.2586    4.1021 C.ar    1  UNL1        0.0000
      8 H           9.9132   -0.3605    4.4753 H       1  UNL1        0.0000
      9 C          11.6202   -0.2710    3.1963 C.ar    1  UNL1        0.0000
     10 H          11.5031   -1.2873    2.8485 H       1  UNL1        0.0000
     11 C          12.6749    0.5016    2.7399 C.ar    1  UNL1        0.0000
     12 H          13.3808    0.0916    2.0328 H       1  UNL1        0.0000
     13 C          12.8256    1.7986    3.2018 C.ar    1  UNL1        0.0000
     14 H          13.6534    2.4011    2.8573 H       1  UNL1        0.0000
     15 C          11.9189    2.3238    4.1051 C.ar    1  UNL1        0.0000
     16 H          12.0458    3.3343    4.4646 H       1  UNL1        0.0000
     17 C           9.5386    1.1541    7.3186 C.ar    1  UNL1        0.0000
     18 C          10.5610    1.2387    8.2588 C.ar    1  UNL1        0.0000
     19 H          11.3727    1.9340    8.0971 H       1  UNL1        0.0000
     20 C          10.5518    0.4478    9.3932 C.ar    1  UNL1        0.0000
     21 H          11.3503    0.5319   10.1163 H       1  UNL1        0.0000
     22 C           9.5181   -0.4493    9.6037 C.ar    1  UNL1        0.0000
     23 H           9.5054   -1.0631   10.4925 H       1  UNL1        0.0000
     24 C           8.5020   -0.5577    8.6694 C.ar    1  UNL1        0.0000
     25 H           7.6951   -1.2592    8.8252 H       1  UNL1        0.0000
     26 C           8.5159    0.2361    7.5373 C.ar    1  UNL1        0.0000
     27 H           7.7180    0.1462    6.8117 H       1  UNL1        0.0000
     28 C           9.8193    4.0891    6.1394 C.ar    1  UNL1        0.0000
     29 C           9.9459    4.9936    5.0872 C.ar    1  UNL1        0.0000
     30 H           9.9142    4.6324    4.0679 H       1  UNL1        0.0000
     31 C          10.0999    6.3467    5.3244 C.ar    1  UNL1        0.0000
     32 H          10.1943    7.0331    4.4954 H       1  UNL1        0.0000
     33 C          10.1202    6.8227    6.6247 C.ar    1  UNL1        0.0000
     34 H          10.2317    7.8804    6.8127 H       1  UNL1        0.0000
     35 C           9.9891    5.9382    7.6815 C.ar    1  UNL1        0.0000
     36 H           9.9973    6.3049    8.6978 H       1  UNL1        0.0000
     37 C           9.8416    4.5843    7.4390 C.ar    1  UNL1        0.0000
     38 H           9.7404    3.9020    8.2700 H       1  UNL1        0.0000
@<TRIPOS>BOND
     1    12    11    1
     2    11     9   ar
     3    11    13   ar
     4    10     9    1
     5    14    13    1
     6     9     7   ar
     7    13    15   ar
     8     4     2    1
     9     3     2    1
    10     2     1    1
    11    30    29    1
    12     7     8    1
    13     7     6   ar
    14    15    16    1
    15    15     6   ar
    16    32    31    1
    17     6     5    1
    18     1     5    1
    19    29    31   ar
    20    29    28   ar
    21    31    33   ar
    22     5    28    1
    23     5    17    1
    24    28    37   ar
    25    33    34    1
    26    33    35   ar
    27    27    26    1
    28    17    26   ar
    29    17    18   ar
    30    37    35   ar
    31    37    38    1
    32    26    24   ar
    33    35    36    1
    34    19    18    1
    35    18    20   ar
    36    24    25    1
    37    24    22   ar
    38    20    22   ar
    39    20    21    1
    40    22    23    1
