@<TRIPOS>MOLECULE
1
 4 3 0 0 0
SMALL
GASTEIGER

@<TRIPOS>ATOM
      1 C           9.1506    2.7855   19.6732 C.3     1  UNL1       -0.0681
      2 H           9.2890    2.1748   20.5736 H       1  UNL1        0.0227
      3 H           9.9253    2.4764   18.9622 H       1  UNL1        0.0227
      4 H           9.3981    3.8147   19.9635 H       1  UNL1        0.0227
@<TRIPOS>BOND
     1     3     1    1
     2     1     4    1
     3     1     2    1
