@<TRIPOS>MOLECULE
1
 4 3 0 0 0
SMALL
GASTEIGER

@<TRIPOS>ATOM
      1 C           6.1038    2.2586   20.6823 C.3     1  UNL1       -0.0681
      2 H           6.5403    2.8247   21.5142 H       1  UNL1        0.0227
      3 H           5.0597    2.5812   20.5958 H       1  UNL1        0.0227
      4 H           6.0721    1.2117   21.0108 H       1  UNL1        0.0227
@<TRIPOS>BOND
     1     3     1    1
     2     1     4    1
     3     1     2    1
