@<TRIPOS>MOLECULE
2
 16 15 0 0 0
SMALL
GASTEIGER

@<TRIPOS>ATOM
      1 SI          1.2733   -1.0243    5.6944 Si      1  UNL1        0.0000
      2 C           1.4259    0.4712    6.8370 C.3     1  UNL1        0.0000
      3 C           2.2432   -0.7608    4.0679 C.3     1  UNL1        0.0000
      4 C          -0.5392   -1.4301    5.1997 C.3     1  UNL1        0.0000
      5 C           1.9842   -2.5947    6.5311 C.3     1  UNL1        0.0000
      6 H           1.2298    1.3712    6.2394 H       1  UNL1        0.0000
      7 H           0.6013    0.4188    7.5602 H       1  UNL1        0.0000
      8 H           1.9877   -1.5181    3.3330 H       1  UNL1        0.0000
      9 H           2.0325    0.2068    3.6214 H       1  UNL1        0.0000
     10 H           3.3127   -0.8283    4.2454 H       1  UNL1        0.0000
     11 H          -0.9875   -0.6120    4.6443 H       1  UNL1        0.0000
     12 H          -0.5991   -2.3183    4.5785 H       1  UNL1        0.0000
     13 H          -1.1550   -1.6036    6.0770 H       1  UNL1        0.0000
     14 H           3.0004   -2.4181    6.8824 H       1  UNL1        0.0000
     15 H           2.0230   -3.4243    5.8314 H       1  UNL1        0.0000
     16 H           1.3810   -2.9142    7.3763 H       1  UNL1        0.0000
@<TRIPOS>BOND
     1     8     3    1
     2     9     3    1
     3     3    10    1
     4     3     1    1
     5    12     4    1
     6    11     4    1
     7     4     1    1
     8     4    13    1
     9     1     5    1
    10     1     2    1
    11    15     5    1
    12     6     2    1
    13     5    14    1
    14     5    16    1
    15     2     7    1
