@<TRIPOS>MOLECULE
2
 16 15 0 0 0
SMALL
GASTEIGER

@<TRIPOS>ATOM
      1 SI          1.0748    3.6756    2.7462 Si      1  UNL1        0.0000
      2 C          -0.3939    2.5208    2.5545 C.3     1  UNL1        0.0000
      3 C           2.7069    2.6753    2.8261 C.3     1  UNL1        0.0000
      4 C           1.3011    4.9464    1.3204 C.3     1  UNL1        0.0000
      5 C           0.9200    4.7239    4.3444 C.3     1  UNL1        0.0000
      6 H          -0.3151    2.0535    1.5640 H       1  UNL1        0.0000
      7 H          -1.3068    3.1270    2.5259 H       1  UNL1        0.0000
      8 H           2.8651    2.1144    1.9096 H       1  UNL1        0.0000
      9 H           3.5665    3.3245    2.9619 H       1  UNL1        0.0000
     10 H           2.6961    1.9676    3.6509 H       1  UNL1        0.0000
     11 H           2.1676    5.5828    1.4730 H       1  UNL1        0.0000
     12 H           1.4309    4.4429    0.3672 H       1  UNL1        0.0000
     13 H           0.4335    5.5931    1.2299 H       1  UNL1        0.0000
     14 H           1.7425    5.4261    4.4360 H       1  UNL1        0.0000
     15 H           0.9254    4.0966    5.2301 H       1  UNL1        0.0000
     16 H           0.0002    5.3015    4.3483 H       1  UNL1        0.0000
@<TRIPOS>BOND
     1    12     4    1
     2    13     4    1
     3     4    11    1
     4     4     1    1
     5     6     2    1
     6     8     3    1
     7     7     2    1
     8     2     1    1
     9     1     3    1
    10     1     5    1
    11     3     9    1
    12     3    10    1
    13     5    16    1
    14     5    14    1
    15     5    15    1
