@<TRIPOS>MOLECULE
2
 16 15 0 0 0
SMALL
GASTEIGER

@<TRIPOS>ATOM
      1 SI          0.9757    0.0464    7.6621 Si      1  UNL1        0.0000
      2 C           0.8798    0.9718    6.0270 C.3     1  UNL1        0.0000
      3 C           0.8686   -1.8598    7.5122 C.3     1  UNL1        0.0000
      4 C           2.6182    0.3765    8.6071 C.3     1  UNL1        0.0000
      5 C          -0.3851    0.5281    8.9341 C.3     1  UNL1        0.0000
      6 H           0.9103    2.0431    6.2731 H       1  UNL1        0.0000
      7 H           1.8474    0.7776    5.5358 H       1  UNL1        0.0000
      8 H           0.6713   -2.3165    8.4777 H       1  UNL1        0.0000
      9 H           1.8002   -2.2735    7.1419 H       1  UNL1        0.0000
     10 H           0.0809   -2.1702    6.8349 H       1  UNL1        0.0000
     11 H           2.6800   -0.1824    9.5364 H       1  UNL1        0.0000
     12 H           2.7251    1.4295    8.8512 H       1  UNL1        0.0000
     13 H           3.4758    0.0975    8.0017 H       1  UNL1        0.0000
     14 H          -0.1761    0.0615    9.8921 H       1  UNL1        0.0000
     15 H          -1.3766    0.2018    8.6335 H       1  UNL1        0.0000
     16 H          -0.4202    1.5998    9.1049 H       1  UNL1        0.0000
@<TRIPOS>BOND
     1     7     2    1
     2     2     6    1
     3     2     1    1
     4    10     3    1
     5     9     3    1
     6     3     1    1
     7     3     8    1
     8     1     4    1
     9     1     5    1
    10    13     4    1
    11     4    12    1
    12     4    11    1
    13    15     5    1
    14     5    16    1
    15     5    14    1
