@<TRIPOS>MOLECULE
3
 28 27 0 0 0
SMALL
GASTEIGER

@<TRIPOS>ATOM
      1 SI          2.5528   15.0931    5.5700 Si      1  UNL1        0.0000
      2 SI          5.7527   14.6311    5.6202 Si      1  UNL1        0.0000
      3 C           4.0123   13.9080    5.7908 C.3     1  UNL1        0.0000
      4 H           3.9417   13.5040    6.8097 H       1  UNL1        0.0000
      5 C           2.6791   16.7897    6.4388 C.3     1  UNL1        0.0000
      6 H           2.8449   16.6658    7.5036 H       1  UNL1        0.0000
      7 H           1.7753   17.3775    6.3124 H       1  UNL1        0.0000
      8 H           3.5069   17.3685    6.0432 H       1  UNL1        0.0000
      9 C           2.2535   15.4290    3.6991 C.3     1  UNL1        0.0000
     10 H           3.0336   16.0580    3.2840 H       1  UNL1        0.0000
     11 H           1.3094   15.9413    3.5406 H       1  UNL1        0.0000
     12 H           2.2241   14.5025    3.1200 H       1  UNL1        0.0000
     13 C           0.9906   14.2009    6.2325 C.3     1  UNL1        0.0000
     14 H           0.8468   13.2399    5.7393 H       1  UNL1        0.0000
     15 H           0.0912   14.7889    6.0806 H       1  UNL1        0.0000
     16 H           1.0814   14.0090    7.2964 H       1  UNL1        0.0000
     17 C           6.3472   15.6016    7.1552 C.3     1  UNL1        0.0000
     18 H           5.7074   16.4561    7.3458 H       1  UNL1        0.0000
     19 H           7.3624   15.9677    7.0370 H       1  UNL1        0.0000
     20 H           6.3246   14.9736    8.0397 H       1  UNL1        0.0000
     21 C           5.8972   15.7955    4.1072 C.3     1  UNL1        0.0000
     22 H           5.4447   15.3608    3.2215 H       1  UNL1        0.0000
     23 H           6.9347   16.0148    3.8757 H       1  UNL1        0.0000
     24 H           5.4005   16.7395    4.3011 H       1  UNL1        0.0000
     25 C           6.9893   13.1854    5.3529 C.3     1  UNL1        0.0000
     26 H           6.9829   12.5146    6.2078 H       1  UNL1        0.0000
     27 H           8.0082   13.5419    5.2318 H       1  UNL1        0.0000
     28 H           6.7444   12.5930    4.4675 H       1  UNL1        0.0000
@<TRIPOS>BOND
     1    12     9    1
     2    22    21    1
     3    10     9    1
     4    11     9    1
     5     9     1    1
     6    23    21    1
     7    21    24    1
     8    21     2    1
     9    28    25    1
    10    27    25    1
    11    25     2    1
    12    25    26    1
    13     1     3    1
    14     1    13    1
    15     1     5    1
    16     2     3    1
    17     2    17    1
    18    14    13    1
    19     3     4    1
    20     8     5    1
    21    15    13    1
    22    13    16    1
    23     7     5    1
    24     5     6    1
    25    19    17    1
    26    17    18    1
    27    17    20    1
