@<TRIPOS>MOLECULE
2
 67 69 0 0 0
SMALL
GASTEIGER

@<TRIPOS>ATOM
      1 N          17.1263    0.0859    5.6266 N.pl3   1  UNL1       -0.3006
      2 C          16.0540    0.8751    5.5841 C.3     1  UNL1        0.1874
      3 C          19.2307    0.5082    6.7627 C.ar    1  UNL1       -0.0235
      4 C          18.4672    0.5436    5.5897 C.ar    1  UNL1        0.0384
      5 C          18.9981    1.0087    4.3845 C.ar    1  UNL1       -0.0235
      6 C          18.6051    0.0484    8.0606 C.3     1  UNL1       -0.0198
      7 H          17.8831   -0.7426    7.8384 H       1  UNL1        0.0344
      8 C          20.3207    1.4328    4.3679 C.ar    1  UNL1       -0.0566
      9 H          20.7564    1.7941    3.4486 H       1  UNL1        0.0621
     10 C          17.8402    1.2134    8.6946 C.3     1  UNL1       -0.0586
     11 H          18.5401    1.9604    9.0566 H       1  UNL1        0.0235
     12 H          17.2420    0.8592    9.5323 H       1  UNL1        0.0235
     13 H          17.1924    1.6919    7.9620 H       1  UNL1        0.0235
     14 C          20.5445    0.9472    6.7043 C.ar    1  UNL1       -0.0566
     15 H          21.1541    0.9477    7.5925 H       1  UNL1        0.0621
     16 C          17.8583    2.5318    2.7764 C.3     1  UNL1       -0.0586
     17 H          17.3573    3.0203    3.6207 H       1  UNL1        0.0235
     18 H          17.2031    2.5843    1.9106 H       1  UNL1        0.0235
     19 H          18.7714    3.0772    2.5543 H       1  UNL1        0.0235
     20 C          21.0869    1.3994    5.5158 C.ar    1  UNL1       -0.0611
     21 H          22.1129    1.7362    5.4881 H       1  UNL1        0.0618
     22 C          16.8116   -1.3431    5.4881 C.3     1  UNL1        0.0302
     23 H          17.3447   -1.9483    6.2228 H       1  UNL1        0.0480
     24 H          17.1051   -1.6865    4.4879 H       1  UNL1        0.0480
     25 C          19.6152   -0.5219    9.0558 C.3     1  UNL1       -0.0586
     26 H          20.2431   -1.2761    8.5856 H       1  UNL1        0.0235
     27 H          19.0875   -0.9836    9.8880 H       1  UNL1        0.0235
     28 H          20.2491    0.2633    9.4601 H       1  UNL1        0.0235
     29 C          18.1604    1.0733    3.1286 C.3     1  UNL1       -0.0198
     30 H          17.2038    0.5808    3.3168 H       1  UNL1        0.0344
     31 C          18.8379    0.3559    1.9583 C.3     1  UNL1       -0.0586
     32 H          19.7440    0.8704    1.6503 H       1  UNL1        0.0235
     33 H          18.1641    0.3204    1.1050 H       1  UNL1        0.0235
     34 H          19.1016   -0.6636    2.2336 H       1  UNL1        0.0235
     35 N          14.9823    0.0851    5.5421 N.pl3   1  UNL1       -0.3006
     36 C          12.8784    0.5065    4.4050 C.ar    1  UNL1       -0.0235
     37 C          13.6412    0.5423    5.5783 C.ar    1  UNL1        0.0384
     38 C          13.1099    1.0078    6.7831 C.ar    1  UNL1       -0.0235
     39 C          13.5050    0.0468    3.1075 C.3     1  UNL1       -0.0198
     40 H          14.2288   -0.7423    3.3305 H       1  UNL1        0.0344
     41 C          11.7874    1.4326    6.7987 C.ar    1  UNL1       -0.0566
     42 H          11.3513    1.7947    7.7175 H       1  UNL1        0.0621
     43 C          14.2673    1.2133    2.4730 C.3     1  UNL1       -0.0586
     44 H          13.5657    1.9582    2.1101 H       1  UNL1        0.0235
     45 H          14.8670    0.8601    1.6361 H       1  UNL1        0.0235
     46 H          14.9133    1.6940    3.2058 H       1  UNL1        0.0235
     47 C          11.5647    0.9460    4.4623 C.ar    1  UNL1       -0.0566
     48 H          10.9558    0.9463    3.5737 H       1  UNL1        0.0621
     49 C          14.2507    2.5304    8.3910 C.3     1  UNL1       -0.0586
     50 H          14.7528    3.0179    7.5468 H       1  UNL1        0.0235
     51 H          14.9054    2.5824    9.2572 H       1  UNL1        0.0235
     52 H          13.3381    3.0770    8.6123 H       1  UNL1        0.0235
     53 C          11.0219    1.3991    5.6503 C.ar    1  UNL1       -0.0611
     54 H           9.9962    1.7366    5.6773 H       1  UNL1        0.0618
     55 C          15.2981   -1.3437    5.6809 C.3     1  UNL1        0.0302
     56 H          14.7656   -1.9495    4.9463 H       1  UNL1        0.0480
     57 H          15.0050   -1.6871    6.6811 H       1  UNL1        0.0480
     58 C          12.4963   -0.5265    2.1127 C.3     1  UNL1       -0.0586
     59 H          11.8691   -1.2808    2.5838 H       1  UNL1        0.0235
     60 H          13.0252   -0.9890    1.2816 H       1  UNL1        0.0235
     61 H          11.8617    0.2571    1.7067 H       1  UNL1        0.0235
     62 C          13.9470    1.0721    8.0393 C.3     1  UNL1       -0.0198
     63 H          14.9031    0.5784    7.8516 H       1  UNL1        0.0344
     64 C          13.2684    0.3559    9.2096 C.3     1  UNL1       -0.0586
     65 H          12.3632    0.8720    9.5176 H       1  UNL1        0.0235
     66 H          13.9421    0.3193   10.0629 H       1  UNL1        0.0235
     67 H          13.0029   -0.6632    8.9344 H       1  UNL1        0.0235
@<TRIPOS>BOND
     1    33    31    1
     2    60    58    1
     3    45    43    1
     4    32    31    1
     5    61    58    1
     6    18    16    1
     7    31    34    1
     8    31    29    1
     9    44    43    1
    10    58    59    1
    11    58    39    1
    12    43    39    1
    13    43    46    1
    14    19    16    1
    15    16    29    1
    16    16    17    1
    17    39    40    1
    18    39    36    1
    19    29    30    1
    20    29     5    1
    21     9     8    1
    22    48    47    1
    23     8     5   ar
    24     8    20   ar
    25     5     4   ar
    26    36    47   ar
    27    36    37   ar
    28    47    53   ar
    29    24    22    1
    30    56    55    1
    31    21    20    1
    32    22     1    1
    33    22    55    1
    34    22    23    1
    35    20    14   ar
    36    35    37    1
    37    35     2    1
    38    35    55    1
    39    37    38   ar
    40     2     1    1
    41     4     1    1
    42     4     3   ar
    43    53    54    1
    44    53    41   ar
    45    55    57    1
    46    14     3   ar
    47    14    15    1
    48     3     6    1
    49    38    41   ar
    50    38    62    1
    51    41    42    1
    52    50    49    1
    53     7     6    1
    54    63    62    1
    55    13    10    1
    56    62    49    1
    57    62    64    1
    58     6    10    1
    59     6    25    1
    60    49    52    1
    61    49    51    1
    62    26    25    1
    63    10    11    1
    64    10    12    1
    65    67    64    1
    66    25    28    1
    67    25    27    1
    68    64    65    1
    69    64    66    1
