@<TRIPOS>MOLECULE
7
 14 14 0 0 0
SMALL
GASTEIGER

@<TRIPOS>ATOM
      1 C           0.7331    2.5293    3.4097 C.ar    1  UNL1       -0.0470
      2 C           1.2421    2.1850    2.1484 C.ar    1  UNL1       -0.0586
      3 C           1.2521    0.8749    1.7088 C.ar    1  UNL1       -0.0615
      4 C           0.7355   -0.1370    2.5006 C.ar    1  UNL1       -0.0617
      5 C           0.1866    0.1850    3.7334 C.ar    1  UNL1       -0.0615
      6 C           0.1815    1.4902    4.1809 C.ar    1  UNL1       -0.0586
      7 C           0.7721    3.9043    3.9266 C.3     1  UNL1       -0.0237
      8 H           1.6167    2.9631    1.4961 H       1  UNL1        0.0620
      9 H           1.6555    0.6427    0.7330 H       1  UNL1        0.0618
     10 H           0.7430   -1.1597    2.1548 H       1  UNL1        0.0618
     11 H          -0.2464   -0.5902    4.3496 H       1  UNL1        0.0618
     12 H          -0.2747    1.7264    5.1341 H       1  UNL1        0.0620
     13 H          -0.1754    4.1516    4.4306 H       1  UNL1        0.0316
     14 H           0.9590    4.6271    3.1157 H       1  UNL1        0.0316
@<TRIPOS>BOND
     1     9     3    1
     2     8     2    1
     3     3     2   ar
     4     3     4   ar
     5     2     1   ar
     6    10     4    1
     7     4     5   ar
     8    14     7    1
     9     1     7    1
    10     1     6   ar
    11     5     6   ar
    12     5    11    1
    13     7    13    1
    14     6    12    1
