@<TRIPOS>MOLECULE
7
 14 14 0 0 0
SMALL
GASTEIGER

@<TRIPOS>ATOM
      1 C           0.1502    3.0990    7.4500 C.ar    1  UNL1       -0.0470
      2 C          -1.0917    3.5705    6.9870 C.ar    1  UNL1       -0.0586
      3 C          -2.1886    2.7381    6.8910 C.ar    1  UNL1       -0.0615
      4 C          -2.0949    1.4052    7.2625 C.ar    1  UNL1       -0.0617
      5 C          -0.8900    0.9230    7.7500 C.ar    1  UNL1       -0.0615
      6 C           0.2094    1.7524    7.8483 C.ar    1  UNL1       -0.0586
      7 C           1.3126    3.9808    7.5243 C.3     1  UNL1       -0.0237
      8 H          -1.1931    4.6186    6.7231 H       1  UNL1        0.0620
      9 H          -3.1294    3.1304    6.5313 H       1  UNL1        0.0618
     10 H          -2.9533    0.7557    7.1868 H       1  UNL1        0.0618
     11 H          -0.8125   -0.1079    8.0653 H       1  UNL1        0.0618
     12 H           1.1316    1.3640    8.2650 H       1  UNL1        0.0620
     13 H           2.0078    3.6638    8.3147 H       1  UNL1        0.0316
     14 H           1.0061    5.0182    7.6980 H       1  UNL1        0.0316
@<TRIPOS>BOND
     1     9     3    1
     2     8     2    1
     3     3     2   ar
     4     3     4   ar
     5     2     1   ar
     6    10     4    1
     7     4     5   ar
     8     1     7    1
     9     1     6   ar
    10     7    14    1
    11     7    13    1
    12     5     6   ar
    13     5    11    1
    14     6    12    1
