@<TRIPOS>MOLECULE
7
 14 14 0 0 0
SMALL
GASTEIGER

@<TRIPOS>ATOM
      1 C           4.3780    1.9258    6.2588 C.ar    1  UNL1       -0.0470
      2 C           4.4668    2.0355    7.6610 C.ar    1  UNL1       -0.0586
      3 C           5.6807    2.2149    8.2944 C.ar    1  UNL1       -0.0615
      4 C           6.8533    2.2957    7.5578 C.ar    1  UNL1       -0.0617
      5 C           6.7922    2.1843    6.1762 C.ar    1  UNL1       -0.0615
      6 C           5.5821    2.0053    5.5361 C.ar    1  UNL1       -0.0586
      7 C           3.0945    1.7198    5.5906 C.3     1  UNL1       -0.0237
      8 H           3.5662    1.9209    8.2571 H       1  UNL1        0.0620
      9 H           5.7217    2.2823    9.3724 H       1  UNL1        0.0618
     10 H           7.8016    2.4309    8.0553 H       1  UNL1        0.0618
     11 H           7.7056    2.2200    5.5981 H       1  UNL1        0.0618
     12 H           5.5564    1.8898    4.4591 H       1  UNL1        0.0620
     13 H           2.3977    1.1292    6.2008 H       1  UNL1        0.0316
     14 H           3.2132    1.2483    4.6048 H       1  UNL1        0.0316
@<TRIPOS>BOND
     1    12     6    1
     2    14     7    1
     3     6     5   ar
     4     6     1   ar
     5     7    13    1
     6     7     1    1
     7    11     5    1
     8     5     4   ar
     9     1     2   ar
    10     4    10    1
    11     4     3   ar
    12     2     8    1
    13     2     3   ar
    14     3     9    1
