@<TRIPOS>MOLECULE
2
 20 19 0 0 0
SMALL
GASTEIGER

@<TRIPOS>ATOM
      1 O          10.8576   16.4497    2.3058 O.3     1  UNL1       -0.3742
      2 C           9.1588   15.1362    1.3180 C.3     1  UNL1       -0.0274
      3 C          10.6338   15.2013    1.6689 C.3     1  UNL1        0.0484
      4 C          12.2005   16.8251    2.6054 C.3     1  UNL1        0.0612
      5 C          12.9969   17.1246    1.3275 C.3     1  UNL1       -0.0363
      6 C          12.9280   15.7623    3.4387 C.3     1  UNL1       -0.0363
      7 C          12.0450   18.1089    3.4274 C.3     1  UNL1       -0.0363
      8 H           8.9511   15.9285    0.5903 H       1  UNL1        0.0288
      9 H           8.6044   15.3918    2.2251 H       1  UNL1        0.0288
     10 H          10.8986   14.3810    2.3523 H       1  UNL1        0.0560
     11 H          11.2440   15.1146    0.7621 H       1  UNL1        0.0560
     12 H          12.4163   17.7732    0.6758 H       1  UNL1        0.0257
     13 H          13.2381   16.2112    0.7907 H       1  UNL1        0.0257
     14 H          13.9266   17.6251    1.5831 H       1  UNL1        0.0257
     15 H          12.3220   15.4796    4.2966 H       1  UNL1        0.0257
     16 H          13.8714   16.1656    3.7965 H       1  UNL1        0.0257
     17 H          13.1388   14.8753    2.8460 H       1  UNL1        0.0257
     18 H          11.5162   18.8547    2.8410 H       1  UNL1        0.0257
     19 H          13.0167   18.5008    3.7138 H       1  UNL1        0.0257
     20 H          11.4641   17.9028    4.3220 H       1  UNL1        0.0257
@<TRIPOS>BOND
     1     8     2    1
     2    12     5    1
     3    11     3    1
     4    13     5    1
     5     2     3    1
     6     2     9    1
     7     5    14    1
     8     5     4    1
     9     3     1    1
    10     3    10    1
    11     1     4    1
    12     4     7    1
    13     4     6    1
    14    18     7    1
    15    17     6    1
    16     7    19    1
    17     7    20    1
    18     6    16    1
    19     6    15    1
