@<TRIPOS>MOLECULE
6
 18 17 0 0 0
SMALL
GASTEIGER

@<TRIPOS>ATOM
      1 SI          1.3118    4.7340   16.6791 Si      1  UNL1        0.0000
      2 C           4.6461    4.9726   14.6541 C.2     1  UNL1        0.0000
      3 H           4.6086    4.7538   13.5982 H       1  UNL1        0.0000
      4 H           5.5790    4.7607   15.1528 H       1  UNL1        0.0000
      5 C           3.6050    5.4436   15.2976 C.1     1  UNL1        0.0000
      6 C           2.5787    5.9189   15.9211 C.2     1  UNL1        0.0000
      7 C          -0.3030    5.7280   16.9747 C.3     1  UNL1        0.0000
      8 H          -0.9516    5.6982   16.1041 H       1  UNL1        0.0000
      9 H          -0.0919    6.7790   17.1934 H       1  UNL1        0.0000
     10 H          -0.8687    5.3261   17.8099 H       1  UNL1        0.0000
     11 C           0.9170    3.2182   15.5799 C.3     1  UNL1        0.0000
     12 H           1.8222    2.6594   15.3659 H       1  UNL1        0.0000
     13 H           0.4864    3.5168   14.6296 H       1  UNL1        0.0000
     14 H           0.2155    2.5439   16.0614 H       1  UNL1        0.0000
     15 C           1.9331    4.0535   18.3586 C.3     1  UNL1        0.0000
     16 H           2.0721    4.8502   19.0813 H       1  UNL1        0.0000
     17 H           2.8836    3.5429   18.2417 H       1  UNL1        0.0000
     18 H           1.2272    3.3454   18.7812 H       1  UNL1        0.0000
@<TRIPOS>BOND
     1     3     2    1
     2    13    11    1
     3     2     4    1
     4     2     5    2
     5     5     6    2
     6    12    11    1
     7    11    14    1
     8    11     1    1
     9     6     1    1
    10     8     7    1
    11     1     7    1
    12     1    15    1
    13     7     9    1
    14     7    10    1
    15    17    15    1
    16    15    18    1
    17    15    16    1
