@<TRIPOS>MOLECULE
2
 15 14 0 0 0
SMALL
GASTEIGER

@<TRIPOS>ATOM
      1 SI         -3.8288    5.7625   15.5632 Si      1  UNL1        0.0000
      2 C          -0.9416    4.7886   15.3035 C.1     1  UNL1        0.0000
      3 C          -2.0911    5.1832   15.4055 C.1     1  UNL1        0.0000
      4 C          -4.4555    6.4266   13.8846 C.3     1  UNL1        0.0000
      5 H          -3.8420    7.2524   13.5355 H       1  UNL1        0.0000
      6 H          -5.4798    6.7833   13.9499 H       1  UNL1        0.0000
      7 H          -4.4252    5.6530   13.1227 H       1  UNL1        0.0000
      8 C          -3.9402    7.1605   16.8615 C.3     1  UNL1        0.0000
      9 H          -3.6079    6.8165   17.8368 H       1  UNL1        0.0000
     10 H          -4.9568    7.5275   16.9715 H       1  UNL1        0.0000
     11 H          -3.3144    8.0035   16.5832 H       1  UNL1        0.0000
     12 C          -4.9510    4.3179   16.1159 C.3     1  UNL1        0.0000
     13 H          -4.9240    3.5053   15.3956 H       1  UNL1        0.0000
     14 H          -5.9867    4.6293   16.2208 H       1  UNL1        0.0000
     15 H          -4.6302    3.9163   17.0731 H       1  UNL1        0.0000
@<TRIPOS>BOND
     1     7     4    1
     2     5     4    1
     3     4     6    1
     4     4     1    1
     5     2     3    3
     6    13    12    1
     7     3     1    1
     8     1    12    1
     9     1     8    1
    10    12    14    1
    11    12    15    1
    12    11     8    1
    13     8    10    1
    14     8     9    1
