@<TRIPOS>MOLECULE
1
 21 20 0 0 0
SMALL
GASTEIGER

@<TRIPOS>ATOM
      1 C           4.8500    4.1645    2.3097 C.3     1  UNL1        0.0000
      2 C           3.6378    2.7569    0.6144 C.2     1  UNL1        0.0000
      3 C           2.5103    3.1406   -0.0300 C.2     1  UNL1        0.0000
      4 C           1.8164    2.3627   -0.9652 C.1     1  UNL1        0.0000
      5 C           1.1982    1.7056   -1.7729 C.1     1  UNL1        0.0000
      6 C          -0.9106   -0.4635   -2.0181 C.3     1  UNL1        0.0000
      7 H          -0.3602   -1.1000   -1.3315 H       1  UNL1        0.0000
      8 H          -1.4850   -1.1088   -2.6765 H       1  UNL1        0.0000
      9 H          -1.6152    0.1192   -1.4321 H       1  UNL1        0.0000
     10 C           1.5563   -0.3488   -3.9745 C.3     1  UNL1        0.0000
     11 H           2.2444    0.2983   -4.5103 H       1  UNL1        0.0000
     12 H           1.0826   -1.0005   -4.7031 H       1  UNL1        0.0000
     13 H           2.1450   -0.9724   -3.3083 H       1  UNL1        0.0000
     14 C          -0.6954    1.8569   -4.1385 C.3     1  UNL1        0.0000
     15 H          -1.3804    2.4756   -3.5663 H       1  UNL1        0.0000
     16 H          -1.2798    1.3165   -4.8777 H       1  UNL1        0.0000
     17 H          -0.0229    2.5213   -4.6730 H       1  UNL1        0.0000
     18 F           4.1715    1.5446    0.3623 F       1  UNL1        0.0000
     19 F           2.0159    4.3655    0.2553 F       1  UNL1        0.0000
     20 N           4.2968    3.4912    1.5129 N.pl3   1  UNL1        0.0000
     21 SI          0.2644    0.6622   -3.0084 Si      1  UNL1        0.0000
@<TRIPOS>BOND
     1    16    14    1
     2    12    10    1
     3    17    14    1
     4    11    10    1
     5    14    15    1
     6    14    21    1
     7    10    13    1
     8    10    21    1
     9    21     6    1
    10    21     5    1
    11     8     6    1
    12     6     9    1
    13     6     7    1
    14     5     4    3
    15     4     3    1
    16     3    19    1
    17     3     2    2
    18    18     2    1
    19     2    20    1
    20    20     1    1
