@<TRIPOS>MOLECULE
1
 16 15 0 0 0
SMALL
GASTEIGER

@<TRIPOS>ATOM
      1 C           7.7434    6.1047    2.3688 C.3     1  UNL1        0.0000
      2 SI          9.3421    6.6480    1.5191 Si      1  UNL1        0.0000
      3 C          10.9878    5.7186    1.8332 C.3     1  UNL1        0.0000
      4 C           9.6645    8.5023    1.9442 C.3     1  UNL1        0.0000
      5 C           9.1191    6.6367   -0.3922 C.3     1  UNL1        0.0000
      6 H           7.1285    5.6399    1.5838 H       1  UNL1        0.0000
      7 H           7.2449    7.0456    2.6485 H       1  UNL1        0.0000
      8 H          11.5245    6.1090    2.6917 H       1  UNL1        0.0000
      9 H          10.8326    4.6587    2.0008 H       1  UNL1        0.0000
     10 H          11.6390    5.8193    0.9692 H       1  UNL1        0.0000
     11 H          10.6231    8.8273    1.5532 H       1  UNL1        0.0000
     12 H           8.9024    9.1376    1.5027 H       1  UNL1        0.0000
     13 H           9.6706    8.7004    3.0124 H       1  UNL1        0.0000
     14 H           8.2140    7.1571   -0.6935 H       1  UNL1        0.0000
     15 H           9.9528    7.1228   -0.8899 H       1  UNL1        0.0000
     16 H           9.0570    5.6231   -0.7755 H       1  UNL1        0.0000
@<TRIPOS>BOND
     1    15     5    1
     2    16     5    1
     3    14     5    1
     4     5     2    1
     5    10     3    1
     6    12     4    1
     7     2     3    1
     8     2     4    1
     9     2     1    1
    10    11     4    1
    11     6     1    1
    12     3     9    1
    13     3     8    1
    14     4    13    1
    15     1     7    1
