@<TRIPOS>MOLECULE
1
 16 15 0 0 0
SMALL
GASTEIGER

@<TRIPOS>ATOM
      1 C           5.8866    3.0946    3.0648 C.3     1  UNL1        0.0000
      2 SI          6.6259    2.1089    1.6335 Si      1  UNL1        0.0000
      3 C           7.7684    3.1368    0.4861 C.3     1  UNL1        0.0000
      4 C           5.2564    1.3944    0.4869 C.3     1  UNL1        0.0000
      5 C           7.6426    0.5965    2.2291 C.3     1  UNL1        0.0000
      6 H           5.5816    2.3723    3.8373 H       1  UNL1        0.0000
      7 H           4.9580    3.5803    2.7335 H       1  UNL1        0.0000
      8 H           8.2570    2.4863   -0.2337 H       1  UNL1        0.0000
      9 H           7.2212    3.8831   -0.0818 H       1  UNL1        0.0000
     10 H           8.5459    3.6426    1.0510 H       1  UNL1        0.0000
     11 H           5.6805    0.8240   -0.3323 H       1  UNL1        0.0000
     12 H           4.6498    2.1841    0.0550 H       1  UNL1        0.0000
     13 H           4.5898    0.7355    1.0336 H       1  UNL1        0.0000
     14 H           8.1383    0.1163    1.3913 H       1  UNL1        0.0000
     15 H           7.0153   -0.1530    2.7028 H       1  UNL1        0.0000
     16 H           8.4118    0.8954    2.9332 H       1  UNL1        0.0000
@<TRIPOS>BOND
     1    11     4    1
     2     8     3    1
     3     9     3    1
     4    12     4    1
     5     3    10    1
     6     3     2    1
     7     4    13    1
     8     4     2    1
     9    14     5    1
    10     2     5    1
    11     2     1    1
    12     5    15    1
    13     5    16    1
    14     7     1    1
    15     1     6    1
