@<TRIPOS>MOLECULE
1
 4 3 0 0 0
SMALL
GASTEIGER

@<TRIPOS>ATOM
      1 C          -1.2641    5.0570   14.1494 C.3     1  UNL1       -0.0681
      2 H          -0.7433    4.1003   14.0908 H       1  UNL1        0.0227
      3 H          -1.7929    5.1914   13.2053 H       1  UNL1        0.0227
      4 H          -2.0223    4.9559   14.9278 H       1  UNL1        0.0227
@<TRIPOS>BOND
     1     3     1    1
     2     2     1    1
     3     1     4    1
