@<TRIPOS>MOLECULE
1
 4 3 0 0 0
SMALL
GASTEIGER

@<TRIPOS>ATOM
      1 C           0.6842    6.1857   16.5988 C.3     1  UNL1       -0.0681
      2 H           0.7193    5.1013   16.7109 H       1  UNL1        0.0227
      3 H          -0.0234    6.5720   17.3289 H       1  UNL1        0.0227
      4 H           1.6682    6.5699   16.8599 H       1  UNL1        0.0227
@<TRIPOS>BOND
     1     1     2    1
     2     1     4    1
     3     1     3    1
