@<TRIPOS>MOLECULE
1
 4 3 0 0 0
SMALL
GASTEIGER

@<TRIPOS>ATOM
      1 C           2.0913    6.0335   13.6289 C.3     1  UNL1       -0.0681
      2 H           2.0139    5.0022   13.2872 H       1  UNL1        0.0227
      3 H           2.8890    6.0744   14.3709 H       1  UNL1        0.0227
      4 H           2.4041    6.6380   12.7803 H       1  UNL1        0.0227
@<TRIPOS>BOND
     1     4     1    1
     2     2     1    1
     3     1     3    1
