@<TRIPOS>MOLECULE
1
 4 3 0 0 0
SMALL
GASTEIGER

@<TRIPOS>ATOM
      1 C           0.8536    1.3907   -0.8224 C.3     1  UNL1       -0.0681
      2 H           0.2382    0.7979   -1.4954 H       1  UNL1        0.0227
      3 H           0.8014    2.4287   -1.1490 H       1  UNL1        0.0227
      4 H           0.4064    1.3338    0.1683 H       1  UNL1        0.0227
@<TRIPOS>BOND
     1     2     1    1
     2     3     1    1
     3     1     4    1
