@<TRIPOS>MOLECULE
1
 16 15 0 0 0
SMALL
GASTEIGER

@<TRIPOS>ATOM
      1 C           3.1152    2.8796    4.6164 C.3     1  UNL1        0.0000
      2 SI          1.7915    1.9299    5.5566 Si      1  UNL1        0.0000
      3 C           0.4038    3.1138    6.1521 C.3     1  UNL1        0.0000
      4 C           2.4511    1.0409    7.1243 C.3     1  UNL1        0.0000
      5 C           0.9309    0.5808    4.4860 C.3     1  UNL1        0.0000
      6 H           2.7422    3.8868    4.3878 H       1  UNL1        0.0000
      7 H           3.2986    2.3979    3.6517 H       1  UNL1        0.0000
      8 H           0.8316    3.9416    6.7084 H       1  UNL1        0.0000
      9 H          -0.1481    3.5288    5.3147 H       1  UNL1        0.0000
     10 H          -0.3098    2.6105    6.7967 H       1  UNL1        0.0000
     11 H           3.3898    0.5309    6.9184 H       1  UNL1        0.0000
     12 H           2.6275    1.7615    7.9185 H       1  UNL1        0.0000
     13 H           1.7506    0.3011    7.5021 H       1  UNL1        0.0000
     14 H           0.5793    0.9947    3.5455 H       1  UNL1        0.0000
     15 H           1.6032   -0.2398    4.2533 H       1  UNL1        0.0000
     16 H           0.0701    0.1588    4.9960 H       1  UNL1        0.0000
@<TRIPOS>BOND
     1    14     5    1
     2     7     1    1
     3    15     5    1
     4     6     1    1
     5     5    16    1
     6     5     2    1
     7     1     2    1
     8     9     3    1
     9     2     3    1
    10     2     4    1
    11     3     8    1
    12     3    10    1
    13    11     4    1
    14     4    13    1
    15     4    12    1
