@<TRIPOS>MOLECULE
1
 14 14 0 0 0
SMALL
GASTEIGER

@<TRIPOS>ATOM
      1 C          15.5485    3.9375   10.9980 C.3     1  UNL1       -0.0237
      2 C          14.6136    4.9722   11.4377 C.ar    1  UNL1       -0.0470
      3 C          14.9485    5.9081   12.4314 C.ar    1  UNL1       -0.0586
      4 C          14.0489    6.8708   12.8471 C.ar    1  UNL1       -0.0615
      5 C          12.7862    6.9453   12.2806 C.ar    1  UNL1       -0.0617
      6 C          12.4367    6.0408   11.2867 C.ar    1  UNL1       -0.0615
      7 C          13.3288    5.0732   10.8712 C.ar    1  UNL1       -0.0586
      8 H          16.5772    4.1767   11.2964 H       1  UNL1        0.0316
      9 H          15.5021    3.8052    9.9118 H       1  UNL1        0.0316
     10 H          15.9414    5.8842   12.8665 H       1  UNL1        0.0620
     11 H          14.3364    7.5772   13.6134 H       1  UNL1        0.0618
     12 H          12.0863    7.7013   12.6035 H       1  UNL1        0.0618
     13 H          11.4571    6.0983   10.8320 H       1  UNL1        0.0618
     14 H          13.0519    4.3777   10.0867 H       1  UNL1        0.0620
@<TRIPOS>BOND
     1     9     1    1
     2    14     7    1
     3    13     6    1
     4     7     6   ar
     5     7     2   ar
     6     1     8    1
     7     1     2    1
     8     6     5   ar
     9     2     3   ar
    10     5    12    1
    11     5     4   ar
    12     3     4   ar
    13     3    10    1
    14     4    11    1
