@<TRIPOS>MOLECULE
1
 14 14 0 0 0
SMALL
GASTEIGER

@<TRIPOS>ATOM
      1 C          14.7533    2.7275   14.0581 C.3     1  UNL1       -0.0237
      2 C          13.4307    2.7843   14.6712 C.ar    1  UNL1       -0.0470
      3 C          12.4867    3.7443   14.2545 C.ar    1  UNL1       -0.0586
      4 C          11.2163    3.7861   14.7887 C.ar    1  UNL1       -0.0615
      5 C          10.8274    2.8791   15.7653 C.ar    1  UNL1       -0.0617
      6 C          11.7488    1.9539   16.2257 C.ar    1  UNL1       -0.0615
      7 C          13.0261    1.9131   15.6989 C.ar    1  UNL1       -0.0586
      8 H          15.4520    2.1589   14.6883 H       1  UNL1        0.0316
      9 H          15.1378    3.7505   13.9314 H       1  UNL1        0.0316
     10 H          12.7797    4.4776   13.5133 H       1  UNL1        0.0620
     11 H          10.5200    4.5380   14.4453 H       1  UNL1        0.0618
     12 H           9.8310    2.9117   16.1790 H       1  UNL1        0.0618
     13 H          11.4748    1.2658   17.0139 H       1  UNL1        0.0618
     14 H          13.7420    1.2139   16.1172 H       1  UNL1        0.0620
@<TRIPOS>BOND
     1    10     3    1
     2     9     1    1
     3     1     2    1
     4     1     8    1
     5     3     2   ar
     6     3     4   ar
     7    11     4    1
     8     2     7   ar
     9     4     5   ar
    10     7    14    1
    11     7     6   ar
    12     5    12    1
    13     5     6   ar
    14     6    13    1
