@<TRIPOS>MOLECULE
1
 4 3 0 0 0
SMALL
GASTEIGER

@<TRIPOS>ATOM
      1 C          15.4138    5.2557   12.1392 C.3     1  UNL1       -0.0681
      2 H          15.1325    4.9756   13.1633 H       1  UNL1        0.0227
      3 H          15.7287    6.3060   12.1405 H       1  UNL1        0.0227
      4 H          16.2662    4.6364   11.8338 H       1  UNL1        0.0227
@<TRIPOS>BOND
     1     4     1    1
     2     1     3    1
     3     1     2    1
