@<TRIPOS>MOLECULE
1
 4 3 0 0 0
SMALL
GASTEIGER

@<TRIPOS>ATOM
      1 C          11.8892    5.2564    9.3040 C.3     1  UNL1       -0.0681
      2 H          12.1710    4.9734    8.2809 H       1  UNL1        0.0227
      3 H          11.5759    6.3072    9.3000 H       1  UNL1        0.0227
      4 H          11.0360    4.6388    9.6104 H       1  UNL1        0.0227
@<TRIPOS>BOND
     1     2     1    1
     2     3     1    1
     3     1     4    1
