@<TRIPOS>MOLECULE
2
 16 15 0 0 0
SMALL
GASTEIGER

@<TRIPOS>ATOM
      1 SI          5.0337    1.8732    4.9132 Si      1  UNL1        0.0000
      2 C           3.8167    2.7539    3.6721 C.3     1  UNL1        0.0000
      3 H           3.7361    3.7630    4.0822 H       1  UNL1        0.0000
      4 H           4.3750    2.8589    2.7392 H       1  UNL1        0.0000
      5 C           4.3291    2.1730    6.6621 C.3     1  UNL1        0.0000
      6 C           6.7049    2.7707    4.7183 C.3     1  UNL1        0.0000
      7 C           5.2648    0.0313    4.4652 C.3     1  UNL1        0.0000
      8 H           3.2543    2.0168    6.7183 H       1  UNL1        0.0000
      9 H           4.5357    3.1874    6.9914 H       1  UNL1        0.0000
     10 H           4.7942    1.5050    7.3797 H       1  UNL1        0.0000
     11 H           7.4239    2.3794    5.4298 H       1  UNL1        0.0000
     12 H           6.6170    3.8369    4.9000 H       1  UNL1        0.0000
     13 H           7.1266    2.6394    3.7269 H       1  UNL1        0.0000
     14 H           4.3328   -0.5264    4.4616 H       1  UNL1        0.0000
     15 H           5.9181   -0.4371    5.1946 H       1  UNL1        0.0000
     16 H           5.7388   -0.0918    3.4955 H       1  UNL1        0.0000
@<TRIPOS>BOND
     1     4     2    1
     2    16     7    1
     3     2     3    1
     4     2     1    1
     5    13     6    1
     6    14     7    1
     7     7     1    1
     8     7    15    1
     9     6    12    1
    10     6     1    1
    11     6    11    1
    12     1     5    1
    13     5     8    1
    14     5     9    1
    15     5    10    1
