@<TRIPOS>MOLECULE
2
 16 15 0 0 0
SMALL
GASTEIGER

@<TRIPOS>ATOM
      1 SI          3.0501    4.9194    0.0105 Si      1  UNL1        0.0000
      2 C           4.5705    4.3989    1.0031 C.3     1  UNL1        0.0000
      3 H           4.6805    5.0385    1.8925 H       1  UNL1        0.0000
      4 H           5.4436    4.5967    0.3765 H       1  UNL1        0.0000
      5 C           3.0436    4.1837   -1.7496 C.3     1  UNL1        0.0000
      6 H           4.0445    4.1564   -2.1692 H       1  UNL1        0.0000
      7 H           2.4201    4.7653   -2.4225 H       1  UNL1        0.0000
      8 H           2.6648    3.1676   -1.7471 H       1  UNL1        0.0000
      9 C           1.3625    4.5496    0.8345 C.3     1  UNL1        0.0000
     10 H           1.1022    3.5001    0.7526 H       1  UNL1        0.0000
     11 H           0.5735    5.1182    0.3511 H       1  UNL1        0.0000
     12 H           1.3535    4.8122    1.8873 H       1  UNL1        0.0000
     13 C           3.1388    6.8316   -0.1661 C.3     1  UNL1        0.0000
     14 H           3.0901    7.3244    0.8000 H       1  UNL1        0.0000
     15 H           2.3165    7.2081   -0.7661 H       1  UNL1        0.0000
     16 H           4.0622    7.1406   -0.6451 H       1  UNL1        0.0000
@<TRIPOS>BOND
     1     7     5    1
     2     6     5    1
     3     5     8    1
     4     5     1    1
     5    15    13    1
     6    16    13    1
     7    13     1    1
     8    13    14    1
     9     1     9    1
    10     1     2    1
    11    11     9    1
    12     4     2    1
    13    10     9    1
    14     9    12    1
    15     2     3    1
