@<TRIPOS>MOLECULE
2
 16 15 0 0 0
SMALL
GASTEIGER

@<TRIPOS>ATOM
      1 SI         13.9451    8.7605    8.7474 Si      1  UNL1        0.0000
      2 C          13.4346   10.4210    7.9860 C.3     1  UNL1        0.0000
      3 C          14.3742    8.7387   10.6137 C.3     1  UNL1        0.0000
      4 C          15.4720    8.0872    7.8136 C.3     1  UNL1        0.0000
      5 C          12.5115    7.5069    8.5159 C.3     1  UNL1        0.0000
      6 H          14.6140    7.7265   10.9267 H       1  UNL1        0.0000
      7 H          15.2453    9.3536   10.8157 H       1  UNL1        0.0000
      8 H          13.5557    9.0835   11.2379 H       1  UNL1        0.0000
      9 H          12.7871    6.5251    8.8855 H       1  UNL1        0.0000
     10 H          11.6188    7.8181    9.0490 H       1  UNL1        0.0000
     11 H          12.2461    7.3996    7.4693 H       1  UNL1        0.0000
     12 H          15.7546    7.1041    8.1769 H       1  UNL1        0.0000
     13 H          16.3239    8.7448    7.9502 H       1  UNL1        0.0000
     14 H          15.2854    8.0015    6.7474 H       1  UNL1        0.0000
     15 H          13.7240   10.3462    6.9339 H       1  UNL1        0.0000
     16 H          12.3441   10.5040    7.9942 H       1  UNL1        0.0000
@<TRIPOS>BOND
     1    14     4    1
     2    15     2    1
     3    11     5    1
     4     4    13    1
     5     4    12    1
     6     4     1    1
     7     2    16    1
     8     2     1    1
     9     5     1    1
    10     5     9    1
    11     5    10    1
    12     1     3    1
    13     3     7    1
    14     3     6    1
    15     3     8    1
