@<TRIPOS>MOLECULE
1
 11 11 0 0 0
SMALL
GASTEIGER

@<TRIPOS>ATOM
      1 C           2.8506   -0.7441    2.5738 C.ar    1  UNL1       -0.0179
      2 C           1.9489   -1.6357    1.9670 C.ar    1  UNL1       -0.0540
      3 H           0.9533   -1.7588    2.3899 H       1  UNL1        0.0624
      4 C           2.2617   -2.3792    0.8374 C.ar    1  UNL1       -0.0612
      5 H           1.5290   -3.0534    0.4134 H       1  UNL1        0.0618
      6 C           3.5096   -2.2581    0.2527 C.ar    1  UNL1       -0.0617
      7 H           3.7582   -2.8302   -0.6296 H       1  UNL1        0.0618
      8 C           4.4342   -1.3967    0.8159 C.ar    1  UNL1       -0.0612
      9 H           5.4155   -1.2952    0.3731 H       1  UNL1        0.0618
     10 C           4.1094   -0.6633    1.9494 C.ar    1  UNL1       -0.0540
     11 H           4.8783   -0.0105    2.3587 H       1  UNL1        0.0624
@<TRIPOS>BOND
     1     7     6    1
     2     6     8   ar
     3     6     4   ar
     4     9     8    1
     5     5     4    1
     6     8    10   ar
     7     4     2   ar
     8    10    11    1
     9    10     1   ar
    10     2     3    1
    11     2     1   ar
