@<TRIPOS>MOLECULE
2
 16 15 0 0 0
SMALL
GASTEIGER

@<TRIPOS>ATOM
      1 SI          3.2467    3.9424    2.5528 Si      1  UNL1        0.0000
      2 C           1.4615    3.4752    2.0668 C.3     1  UNL1        0.0000
      3 C           3.9299    5.2688    1.3536 C.3     1  UNL1        0.0000
      4 C           4.4542    2.4508    2.4409 C.3     1  UNL1        0.0000
      5 C           3.3281    4.6476    4.3268 C.3     1  UNL1        0.0000
      6 H           1.4978    2.7572    1.2325 H       1  UNL1        0.0000
      7 H           0.9959    4.3900    1.6811 H       1  UNL1        0.0000
      8 H           3.3128    6.1614    1.3620 H       1  UNL1        0.0000
      9 H           4.9357    5.5640    1.6339 H       1  UNL1        0.0000
     10 H           3.9686    4.9059    0.3311 H       1  UNL1        0.0000
     11 H           4.2725    1.8456    1.5575 H       1  UNL1        0.0000
     12 H           5.4753    2.8128    2.3751 H       1  UNL1        0.0000
     13 H           4.4010    1.8029    3.3102 H       1  UNL1        0.0000
     14 H           2.8827    3.9732    5.0562 H       1  UNL1        0.0000
     15 H           4.3537    4.8387    4.6285 H       1  UNL1        0.0000
     16 H           2.7883    5.5867    4.3904 H       1  UNL1        0.0000
@<TRIPOS>BOND
     1    10     3    1
     2     6     2    1
     3     3     8    1
     4     3     9    1
     5     3     1    1
     6    11     4    1
     7     7     2    1
     8     2     1    1
     9    12     4    1
    10     4     1    1
    11     4    13    1
    12     1     5    1
    13     5    16    1
    14     5    15    1
    15     5    14    1
