@<TRIPOS>MOLECULE
2
 16 15 0 0 0
SMALL
GASTEIGER

@<TRIPOS>ATOM
      1 SI          3.0734    8.6086    5.0510 Si      1  UNL1        0.0000
      2 C           4.6458    7.7231    4.4457 C.3     1  UNL1        0.0000
      3 C           3.5104    9.6570    6.5899 C.3     1  UNL1        0.0000
      4 C           1.5859    7.5027    5.5259 C.3     1  UNL1        0.0000
      5 C           2.4805    9.7907    3.6658 C.3     1  UNL1        0.0000
      6 H           5.3884    7.7475    5.2524 H       1  UNL1        0.0000
      7 H           5.0444    8.3340    3.6283 H       1  UNL1        0.0000
      8 H           3.8101    9.0273    7.4205 H       1  UNL1        0.0000
      9 H           4.3250   10.3432    6.3843 H       1  UNL1        0.0000
     10 H           2.6588   10.2455    6.9126 H       1  UNL1        0.0000
     11 H           0.8272    8.0859    6.0395 H       1  UNL1        0.0000
     12 H           1.1222    7.0769    4.6406 H       1  UNL1        0.0000
     13 H           1.8765    6.6949    6.1895 H       1  UNL1        0.0000
     14 H           1.5461   10.2728    3.9334 H       1  UNL1        0.0000
     15 H           3.2094   10.5710    3.4720 H       1  UNL1        0.0000
     16 H           2.3184    9.2504    2.7372 H       1  UNL1        0.0000
@<TRIPOS>BOND
     1    16     5    1
     2    15     5    1
     3     7     2    1
     4     5    14    1
     5     5     1    1
     6     2     1    1
     7     2     6    1
     8    12     4    1
     9     1     4    1
    10     1     3    1
    11     4    11    1
    12     4    13    1
    13     9     3    1
    14     3    10    1
    15     3     8    1
