@<TRIPOS>MOLECULE
1
 4 3 0 0 0
SMALL
GASTEIGER

@<TRIPOS>ATOM
      1 C          -0.5302    1.5832   10.0914 C.3     1  UNL1       -0.0681
      2 H          -0.7518    1.4863   11.1596 H       1  UNL1        0.0227
      3 H          -1.0210    0.7411    9.5912 H       1  UNL1        0.0227
      4 H          -1.0084    2.5080    9.7377 H       1  UNL1        0.0227
@<TRIPOS>BOND
     1     3     1    1
     2     4     1    1
     3     1     2    1
