@<TRIPOS>MOLECULE
1
 4 3 0 0 0
SMALL
GASTEIGER

@<TRIPOS>ATOM
      1 C           1.7838   -0.0951   10.6917 C.3     1  UNL1       -0.0681
      2 H           1.5267   -0.0760   11.7565 H       1  UNL1        0.0227
      3 H           2.8441   -0.3741   10.6076 H       1  UNL1        0.0227
      4 H           1.1945   -0.9009   10.2407 H       1  UNL1        0.0227
@<TRIPOS>BOND
     1     4     1    1
     2     3     1    1
     3     1     2    1
