@<TRIPOS>MOLECULE
2
 16 15 0 0 0
SMALL
GASTEIGER

@<TRIPOS>ATOM
      1 SI         -0.6896    3.9264    4.7644 Si      1  UNL1        0.0000
      2 C           0.6461    2.5836    4.7189 C.3     1  UNL1        0.0000
      3 C          -0.8857    5.0064    3.1945 C.3     1  UNL1        0.0000
      4 C          -2.3826    3.1034    5.0977 C.3     1  UNL1        0.0000
      5 C          -0.3510    5.1391    6.2160 C.3     1  UNL1        0.0000
      6 H           1.5671    2.9558    5.1821 H       1  UNL1        0.0000
      7 H           0.2667    1.8140    5.3952 H       1  UNL1        0.0000
      8 H          -0.1468    5.7997    3.1279 H       1  UNL1        0.0000
      9 H          -1.8643    5.4768    3.1842 H       1  UNL1        0.0000
     10 H          -0.8114    4.3891    2.3045 H       1  UNL1        0.0000
     11 H          -2.6643    2.4656    4.2667 H       1  UNL1        0.0000
     12 H          -2.3659    2.4939    5.9967 H       1  UNL1        0.0000
     13 H          -3.1645    3.8463    5.2219 H       1  UNL1        0.0000
     14 H          -1.1083    5.9148    6.2566 H       1  UNL1        0.0000
     15 H           0.6138    5.6296    6.1280 H       1  UNL1        0.0000
     16 H          -0.3646    4.6204    7.1689 H       1  UNL1        0.0000
@<TRIPOS>BOND
     1    10     3    1
     2     8     3    1
     3     9     3    1
     4     3     1    1
     5    11     4    1
     6     2     1    1
     7     2     6    1
     8     2     7    1
     9     1     4    1
    10     1     5    1
    11     4    13    1
    12     4    12    1
    13    15     5    1
    14     5    14    1
    15     5    16    1
