@<TRIPOS>MOLECULE
1
 50 53 0 0 0
SMALL
GASTEIGER

@<TRIPOS>ATOM
      1 C          -1.1060    7.3753    5.2496 C.3     1  UNL1        0.0000
      2 C          -1.5669    6.0745    5.6261 C.ar    1  UNL1        0.0000
      3 C          -2.4078    5.6825    6.6554 C.ar    1  UNL1        0.0000
      4 C          -2.5523    4.2890    6.5495 C.ar    1  UNL1        0.0000
      5 C          -1.8008    3.9127    5.4731 C.ar    1  UNL1        0.0000
      6 O          -1.2121    4.9693    4.9072 O.2     1  UNL1        0.0000
      7 O          -0.3735    7.4241    4.1615 O.3     1  UNL1        0.0000
      8 SI          0.4006    6.4055    3.0751 Si      1  UNL1        0.0000
      9 SI          1.5055    8.2022    1.9711 Si      1  UNL1        0.0000
     10 C           0.3029    9.2702    0.9264 C.3     1  UNL1        0.0000
     11 C           2.3714    9.3819    3.2077 C.3     1  UNL1        0.0000
     12 C           2.8255    7.5314    0.7594 C.3     1  UNL1        0.0000
     13 SI          1.8173    4.9922    4.3752 Si      1  UNL1        0.0000
     14 C           1.6258    5.1885    6.2742 C.3     1  UNL1        0.0000
     15 C           3.6347    5.4304    3.9627 C.3     1  UNL1        0.0000
     16 C           1.6222    3.1398    3.9240 C.3     1  UNL1        0.0000
     17 SI         -1.3476    5.4847    1.7345 Si      1  UNL1        0.0000
     18 C          -2.8534    6.6651    1.8138 C.3     1  UNL1        0.0000
     19 C          -0.6724    5.4262   -0.0555 C.3     1  UNL1        0.0000
     20 C          -2.0060    3.7112    2.0641 C.3     1  UNL1        0.0000
     21 H          -2.8664    6.3178    7.3841 H       1  UNL1        0.0000
     22 H          -3.1322    3.6497    7.1830 H       1  UNL1        0.0000
     23 H          -1.6184    2.9504    5.0376 H       1  UNL1        0.0000
     24 H          -0.5110    9.6492    1.5357 H       1  UNL1        0.0000
     25 H          -0.1359    8.7022    0.1113 H       1  UNL1        0.0000
     26 H           0.8059   10.1290    0.4890 H       1  UNL1        0.0000
     27 H           3.1202    8.8623    3.7983 H       1  UNL1        0.0000
     28 H           1.6465    9.8000    3.9009 H       1  UNL1        0.0000
     29 H           2.8657   10.2120    2.7096 H       1  UNL1        0.0000
     30 H           3.6603    7.0791    1.2827 H       1  UNL1        0.0000
     31 H           3.2265    8.3247    0.1370 H       1  UNL1        0.0000
     32 H           2.4088    6.7794    0.0973 H       1  UNL1        0.0000
     33 H           2.5373    4.9173    6.8009 H       1  UNL1        0.0000
     34 H           0.8243    4.5751    6.6758 H       1  UNL1        0.0000
     35 H           1.4020    6.2209    6.5303 H       1  UNL1        0.0000
     36 H           3.8431    5.2740    2.9092 H       1  UNL1        0.0000
     37 H           4.3296    4.8131    4.5249 H       1  UNL1        0.0000
     38 H           3.8607    6.4665    4.1920 H       1  UNL1        0.0000
     39 H           1.7926    2.9855    2.8630 H       1  UNL1        0.0000
     40 H           0.6349    2.7572    4.1564 H       1  UNL1        0.0000
     41 H           2.3420    2.5288    4.4608 H       1  UNL1        0.0000
     42 H          -3.2308    6.7455    2.8302 H       1  UNL1        0.0000
     43 H          -3.6774    6.3359    1.1861 H       1  UNL1        0.0000
     44 H          -2.5758    7.6655    1.4955 H       1  UNL1        0.0000
     45 H          -0.2918    6.3888   -0.3782 H       1  UNL1        0.0000
     46 H          -1.4417    5.1260   -0.7602 H       1  UNL1        0.0000
     47 H           0.1397    4.7108   -0.1393 H       1  UNL1        0.0000
     48 H          -2.7226    3.6858    2.8790 H       1  UNL1        0.0000
     49 H          -1.1990    3.0267    2.3053 H       1  UNL1        0.0000
     50 H          -2.5061    3.3203    1.1819 H       1  UNL1        0.0000
@<TRIPOS>BOND
     1    46    19    1
     2    45    19    1
     3    47    19    1
     4    19    17    1
     5    32    12    1
     6    25    10    1
     7    31    12    1
     8    26    10    1
     9    12    30    1
    10    12     9    1
    11    10    24    1
    12    10     9    1
    13    50    20    1
    14    43    18    1
    15    44    18    1
    16    17    18    1
    17    17    20    1
    18    17     8    1
    19    18    42    1
    20     9     8    1
    21     9    11    1
    22    20    49    1
    23    20    48    1
    24    29    11    1
    25    39    16    1
    26    36    15    1
    27     8     7    1
    28     8    13    1
    29    11    27    1
    30    11    28    1
    31    16    40    1
    32    16    13    1
    33    16    41    1
    34    15    38    1
    35    15    13    1
    36    15    37    1
    37     7     1    1
    38    13    14    1
    39     6     5   ar
    40     6     2   ar
    41    23     5    1
    42     1     2    1
    43     5     4   ar
    44     2     3   ar
    45    14    35    1
    46    14    34    1
    47    14    33    1
    48     4     3   ar
    49     4    22    1
    50     3    21    1
    51     8     1    0
    52     8     6    0
    53     8     2    0
