@<TRIPOS>MOLECULE
8
 11 11 0 0 0
SMALL
GASTEIGER

@<TRIPOS>ATOM
      1 F           0.3180   -0.8256    5.1547 F       1  UNL1       -0.2016
      2 F           2.7874   -1.6389    6.1906 F       1  UNL1       -0.1993
      3 F           4.8192    0.1847    6.3406 F       1  UNL1       -0.1993
      4 F           1.9581    3.4448    4.4220 F       1  UNL1       -0.2016
      5 F           4.4357    2.7285    5.4319 F       1  UNL1       -0.1993
      6 C           1.3576    0.0602    5.3267 C.ar    1  UNL1        0.1720
      7 C           3.4220    1.8579    5.4239 C.ar    1  UNL1        0.1970
      8 C           1.0705    1.3537    4.9215 C.ar    1  UNL1        0.0641
      9 C           3.6231    0.5546    5.8768 C.ar    1  UNL1        0.1991
     10 C           2.1627    2.2092    4.9527 C.ar    1  UNL1        0.1720
     11 C           2.5842   -0.3734    5.8092 C.ar    1  UNL1        0.1970
@<TRIPOS>BOND
     1     4    10    1
     2     8    10   ar
     3     8     6   ar
     4    10     7   ar
     5     1     6    1
     6     6    11   ar
     7     7     5    1
     8     7     9   ar
     9    11     9   ar
    10    11     2    1
    11     9     3    1
