@<TRIPOS>MOLECULE
1
 16 15 0 0 0
SMALL
GASTEIGER

@<TRIPOS>ATOM
      1 C           7.1212    2.7292   13.3080 C.3     1  UNL1        0.0000
      2 N           6.4442    2.7290   14.3577 N.3     1  UNL1        0.0000
      3 N           5.8233    2.7290   15.3186 N.3     1  UNL1        0.0000
      4 SI          8.9899    2.7290   13.6115 Si      1  UNL1        0.0000
      5 C           9.1878    2.7291   15.5105 C.3     1  UNL1        0.0000
      6 C           9.9250    4.2706   12.9695 C.3     1  UNL1        0.0000
      7 H          10.2371    2.7291   15.7845 H       1  UNL1        0.0000
      8 H           8.7290    1.8554   15.9617 H       1  UNL1        0.0000
      9 H           9.9130    4.3303   11.8874 H       1  UNL1        0.0000
     10 H          10.9653    4.2100   13.2754 H       1  UNL1        0.0000
     11 H           9.5267    5.2000   13.3680 H       1  UNL1        0.0000
     12 C           9.9251    1.1874   12.9696 C.3     1  UNL1        0.0000
     13 H           8.7291    3.6030   15.9616 H       1  UNL1        0.0000
     14 H           9.9131    1.1277   11.8874 H       1  UNL1        0.0000
     15 H          10.9654    1.2481   13.2755 H       1  UNL1        0.0000
     16 H           9.5268    0.2581   13.3681 H       1  UNL1        0.0000
@<TRIPOS>BOND
     1     9     6    1
     2    14    12    1
     3     6    10    1
     4     6    11    1
     5     6     4    1
     6    12    15    1
     7    12    16    1
     8    12     4    1
     9     1     4    1
    10     1     2    1
    11     4     5    1
    12     2     3    1
    13     5     7    1
    14     5    13    1
    15     5     8    1
