@<TRIPOS>MOLECULE
1
 4 3 0 0 0
SMALL
GASTEIGER

@<TRIPOS>ATOM
      1 C           4.1651    2.7290   12.6953 C.3     1  UNL1       -0.0681
      2 H           3.2766    2.7289   12.0615 H       1  UNL1        0.0227
      3 H           4.1010    1.8566   13.3495 H       1  UNL1        0.0227
      4 H           4.1009    3.6014   13.3494 H       1  UNL1        0.0227
@<TRIPOS>BOND
     1     2     1    1
     2     1     4    1
     3     1     3    1
