@<TRIPOS>MOLECULE
1
 4 3 0 0 0
SMALL
GASTEIGER

@<TRIPOS>ATOM
      1 C           2.8941    8.9139    2.9116 C.3     1  UNL1       -0.0681
      2 H           3.6377    8.1429    3.1362 H       1  UNL1        0.0227
      3 H           3.4269    9.6834    2.3378 H       1  UNL1        0.0227
      4 H           2.1883    8.4535    2.2132 H       1  UNL1        0.0227
@<TRIPOS>BOND
     1     4     1    1
     2     3     1    1
     3     1     2    1
