@<TRIPOS>MOLECULE
2
 16 15 0 0 0
SMALL
GASTEIGER

@<TRIPOS>ATOM
      1 SI          1.3781    6.4818    5.3609 Si      1  UNL1        0.0000
      2 C           0.9980    8.2358    5.9443 C.3     1  UNL1        0.0000
      3 H          -0.0894    8.3639    5.9313 H       1  UNL1        0.0000
      4 H           1.3034    8.3442    6.9914 H       1  UNL1        0.0000
      5 C           3.2751    6.2129    5.4359 C.3     1  UNL1        0.0000
      6 H           3.5964    5.4379    4.7480 H       1  UNL1        0.0000
      7 H           3.5826    5.9042    6.4298 H       1  UNL1        0.0000
      8 H           3.8159    7.1243    5.1917 H       1  UNL1        0.0000
      9 C           0.7155    6.3340    3.5663 C.3     1  UNL1        0.0000
     10 H           1.4863    6.0205    2.8711 H       1  UNL1        0.0000
     11 H           0.3177    7.2870    3.2225 H       1  UNL1        0.0000
     12 H          -0.0858    5.6053    3.5062 H       1  UNL1        0.0000
     13 C           0.5696    5.0865    6.3945 C.3     1  UNL1        0.0000
     14 H           0.8249    4.1048    6.0079 H       1  UNL1        0.0000
     15 H          -0.5124    5.1710    6.3861 H       1  UNL1        0.0000
     16 H           0.8913    5.1229    7.4305 H       1  UNL1        0.0000
@<TRIPOS>BOND
     1    10     9    1
     2    11     9    1
     3    12     9    1
     4     9     1    1
     5     6     5    1
     6     8     5    1
     7     1     5    1
     8     1     2    1
     9     1    13    1
    10     5     7    1
    11     3     2    1
    12     2     4    1
    13    14    13    1
    14    15    13    1
    15    13    16    1
