@<TRIPOS>MOLECULE
9
 22 22 0 0 0
SMALL
GASTEIGER

@<TRIPOS>ATOM
      1 SI         11.1461    4.1499    3.0816 Si      1  UNL1        0.0000
      2 C          11.0988    5.3292    1.6206 C.2     1  UNL1        0.0000
      3 C          10.1241    5.4875    0.6786 C.2     1  UNL1        0.0000
      4 H           9.2202    4.9093    0.6035 H       1  UNL1        0.0000
      5 C          10.4792    6.5444   -0.2130 C.2     1  UNL1        0.0000
      6 H           9.8785    6.8724   -1.0435 H       1  UNL1        0.0000
      7 C          11.6801    7.0512    0.1716 C.2     1  UNL1        0.0000
      8 H          12.1884    7.9100   -0.2349 H       1  UNL1        0.0000
      9 C          12.1734    6.2852    1.3116 C.3     1  UNL1        0.0000
     10 H          12.5755    6.8504    2.1506 H       1  UNL1        0.0000
     11 C          12.4616    4.7781    4.3208 C.3     1  UNL1        0.0000
     12 H          12.2072    5.7646    4.6977 H       1  UNL1        0.0000
     13 H          13.4497    4.8477    3.8731 H       1  UNL1        0.0000
     14 H          12.5370    4.1144    5.1769 H       1  UNL1        0.0000
     15 C           9.4396    4.1631    3.9356 C.3     1  UNL1        0.0000
     16 H           9.1645    5.1633    4.2530 H       1  UNL1        0.0000
     17 H           9.4368    3.5247    4.8130 H       1  UNL1        0.0000
     18 H           8.6631    3.8065    3.2674 H       1  UNL1        0.0000
     19 C          11.5218    2.3493    2.5560 C.3     1  UNL1        0.0000
     20 H          10.8136    2.0105    1.8050 H       1  UNL1        0.0000
     21 H          11.4543    1.6696    3.4009 H       1  UNL1        0.0000
     22 H          12.5165    2.2462    2.1320 H       1  UNL1        0.0000
@<TRIPOS>BOND
     1     6     5    1
     2     8     7    1
     3     5     7    2
     4     5     3    1
     5     7     9    1
     6     4     3    1
     7     3     2    2
     8     9     2    1
     9     9    10    1
    10     2     1    1
    11    20    19    1
    12    22    19    1
    13    19     1    1
    14    19    21    1
    15     1    15    1
    16     1    11    1
    17    18    15    1
    18    13    11    1
    19    15    16    1
    20    15    17    1
    21    11    12    1
    22    11    14    1
