@<TRIPOS>MOLECULE
1
 16 15 0 0 0
SMALL
GASTEIGER

@<TRIPOS>ATOM
      1 C           4.7875   19.2749    1.2025 C.3     1  UNL1        0.0000
      2 SI          6.5483   19.8991    1.3885 Si      1  UNL1        0.0000
      3 C           7.8453   18.4835    1.4925 C.3     1  UNL1        0.0000
      4 C           6.7404   20.9423    2.9762 C.3     1  UNL1        0.0000
      5 C           7.1707   21.0023   -0.0669 C.3     1  UNL1        0.0000
      6 H           4.1686   20.1841    1.0901 H       1  UNL1        0.0000
      7 H           4.7182   18.7570    0.2285 H       1  UNL1        0.0000
      8 H           8.8187   18.8735    1.7719 H       1  UNL1        0.0000
      9 H           7.5631   17.7481    2.2396 H       1  UNL1        0.0000
     10 H           7.9680   17.9751    0.5400 H       1  UNL1        0.0000
     11 H           7.7776   21.1989    3.1697 H       1  UNL1        0.0000
     12 H           6.1839   21.8713    2.9043 H       1  UNL1        0.0000
     13 H           6.3645   20.3965    3.8362 H       1  UNL1        0.0000
     14 H           8.1920   21.3402    0.0836 H       1  UNL1        0.0000
     15 H           7.1418   20.4673   -1.0126 H       1  UNL1        0.0000
     16 H           6.5491   21.8862   -0.1767 H       1  UNL1        0.0000
@<TRIPOS>BOND
     1    15     5    1
     2    16     5    1
     3     5    14    1
     4     5     2    1
     5     7     1    1
     6    10     3    1
     7     6     1    1
     8     1     2    1
     9     2     3    1
    10     2     4    1
    11     3     8    1
    12     3     9    1
    13    12     4    1
    14     4    11    1
    15     4    13    1
