@<TRIPOS>MOLECULE
1
 16 15 0 0 0
SMALL
GASTEIGER

@<TRIPOS>ATOM
      1 C           1.7918   19.2577    3.6871 C.3     1  UNL1        0.0000
      2 SI          1.6053   21.1238    3.7767 Si      1  UNL1        0.0000
      3 C           0.0763   21.7324    4.7836 C.3     1  UNL1        0.0000
      4 C           3.1383   21.9295    4.5806 C.3     1  UNL1        0.0000
      5 C           1.3883   21.9470    2.0529 C.3     1  UNL1        0.0000
      6 H           1.8296   18.9202    4.7393 H       1  UNL1        0.0000
      7 H           0.8472   18.8469    3.2865 H       1  UNL1        0.0000
      8 H           0.0104   22.8163    4.8130 H       1  UNL1        0.0000
      9 H          -0.8531   21.3621    4.3586 H       1  UNL1        0.0000
     10 H           0.1241   21.3821    5.8106 H       1  UNL1        0.0000
     11 H           3.1138   23.0125    4.5049 H       1  UNL1        0.0000
     12 H           3.2061   21.6790    5.6343 H       1  UNL1        0.0000
     13 H           4.0459   21.5806    4.0977 H       1  UNL1        0.0000
     14 H           1.4534   23.0280    2.1316 H       1  UNL1        0.0000
     15 H           2.1633   21.6237    1.3644 H       1  UNL1        0.0000
     16 H           0.4207   21.7175    1.6139 H       1  UNL1        0.0000
@<TRIPOS>BOND
     1    15     5    1
     2    16     5    1
     3     5    14    1
     4     5     2    1
     5     7     1    1
     6     1     2    1
     7     1     6    1
     8     2     4    1
     9     2     3    1
    10    13     4    1
    11     9     3    1
    12    11     4    1
    13     4    12    1
    14     3     8    1
    15     3    10    1
