@<TRIPOS>MOLECULE
1
 16 15 0 0 0
SMALL
GASTEIGER

@<TRIPOS>ATOM
      1 C           4.8538   16.9441    4.3250 C.3     1  UNL1        0.0000
      2 SI          5.0024   17.3367    6.1549 Si      1  UNL1        0.0000
      3 C           3.3742   17.0257    7.1290 C.3     1  UNL1        0.0000
      4 C           6.3223   16.2953    7.1010 C.3     1  UNL1        0.0000
      5 C           5.4663   19.1693    6.4226 C.3     1  UNL1        0.0000
      6 H           5.8701   17.0894    3.9146 H       1  UNL1        0.0000
      7 H           4.6569   15.8608    4.2301 H       1  UNL1        0.0000
      8 H           3.4485   17.4183    8.1385 H       1  UNL1        0.0000
      9 H           2.5318   17.5160    6.6505 H       1  UNL1        0.0000
     10 H           3.1507   15.9654    7.2153 H       1  UNL1        0.0000
     11 H           5.4220   19.4507    7.4704 H       1  UNL1        0.0000
     12 H           6.4736   19.3733    6.0738 H       1  UNL1        0.0000
     13 H           4.7882   19.8151    5.8730 H       1  UNL1        0.0000
     14 H           6.3777   16.5630    8.1523 H       1  UNL1        0.0000
     15 H           6.1042   15.2318    7.0478 H       1  UNL1        0.0000
     16 H           7.3107   16.4441    6.6758 H       1  UNL1        0.0000
@<TRIPOS>BOND
     1     6     1    1
     2     7     1    1
     3     1     2    1
     4    13     5    1
     5    12     5    1
     6     2     5    1
     7     2     4    1
     8     2     3    1
     9     5    11    1
    10     9     3    1
    11    16     4    1
    12    15     4    1
    13     4    14    1
    14     3    10    1
    15     3     8    1
