@<TRIPOS>MOLECULE
3
 15 14 0 0 0
SMALL
GASTEIGER

@<TRIPOS>ATOM
      1 SI          7.9098    2.1257    5.8564 Si      1  UNL1        0.0000
      2 N           9.0863    3.4938    5.8369 N.3     1  UNL1        0.0000
      3 C           9.7856    4.4179    5.8039 C.3     1  UNL1        0.0000
      4 C           9.0463    0.6090    5.8798 C.3     1  UNL1        0.0000
      5 C           6.9386    2.4388    7.4531 C.3     1  UNL1        0.0000
      6 C           6.9445    2.3933    4.2477 C.3     1  UNL1        0.0000
      7 H           8.4615   -0.3060    5.8853 H       1  UNL1        0.0000
      8 H           9.6920    0.5742    5.0063 H       1  UNL1        0.0000
      9 H           9.6806    0.5912    6.7622 H       1  UNL1        0.0000
     10 H           7.5794    2.4066    8.3303 H       1  UNL1        0.0000
     11 H           6.4449    3.4070    7.4403 H       1  UNL1        0.0000
     12 H           6.1688    1.6847    7.5871 H       1  UNL1        0.0000
     13 H           6.4541    3.3630    4.2291 H       1  UNL1        0.0000
     14 H           7.5886    2.3321    3.3746 H       1  UNL1        0.0000
     15 H           6.1730    1.6377    4.1345 H       1  UNL1        0.0000
@<TRIPOS>BOND
     1    14     6    1
     2    15     6    1
     3    13     6    1
     4     6     1    1
     5     8     4    1
     6     3     2    1
     7     2     1    1
     8     1     4    1
     9     1     5    1
    10     4     7    1
    11     4     9    1
    12    11     5    1
    13     5    12    1
    14     5    10    1
