@<TRIPOS>MOLECULE
1
 16 15 0 0 0
SMALL
GASTEIGER

@<TRIPOS>ATOM
      1 C           8.6093    2.4713    4.0552 C.3     1  UNL1        0.0000
      2 SI          7.0758    1.7416    4.9292 Si      1  UNL1        0.0000
      3 C           6.8849    2.4903    6.6797 C.3     1  UNL1        0.0000
      4 C           7.2626   -0.1517    5.1256 C.3     1  UNL1        0.0000
      5 C           5.4437    2.0748    3.9641 C.3     1  UNL1        0.0000
      6 H           9.2896    1.6520    3.8167 H       1  UNL1        0.0000
      7 H           9.1328    3.1145    4.7644 H       1  UNL1        0.0000
      8 H           7.7788    2.3228    7.2721 H       1  UNL1        0.0000
      9 H           6.7114    3.5617    6.6491 H       1  UNL1        0.0000
     10 H           6.0524    2.0380    7.2102 H       1  UNL1        0.0000
     11 H           7.4044   -0.6455    4.1690 H       1  UNL1        0.0000
     12 H           8.1184   -0.3949    5.7470 H       1  UNL1        0.0000
     13 H           6.3848   -0.5868    5.5936 H       1  UNL1        0.0000
     14 H           5.5894    2.8732    3.2354 H       1  UNL1        0.0000
     15 H           5.1115    1.1940    3.4226 H       1  UNL1        0.0000
     16 H           4.6369    2.3767    4.6257 H       1  UNL1        0.0000
@<TRIPOS>BOND
     1    14     5    1
     2    15     5    1
     3     6     1    1
     4     5    16    1
     5     5     2    1
     6     1     7    1
     7     1     2    1
     8    11     4    1
     9     2     4    1
    10     2     3    1
    11     4    13    1
    12     4    12    1
    13     9     3    1
    14     3    10    1
    15     3     8    1
