@<TRIPOS>MOLECULE
1
 16 15 0 0 0
SMALL
GASTEIGER

@<TRIPOS>ATOM
      1 C           7.4512    5.1147    3.5487 C.3     1  UNL1        0.0000
      2 SI          8.7726    6.4481    3.8939 Si      1  UNL1        0.0000
      3 C           9.4891    7.2197    2.2951 C.3     1  UNL1        0.0000
      4 C          10.2238    5.7302    4.9027 C.3     1  UNL1        0.0000
      5 C           7.9486    7.8519    4.9017 C.3     1  UNL1        0.0000
      6 H           6.5542    5.6016    3.1452 H       1  UNL1        0.0000
      7 H           7.1615    4.6902    4.5139 H       1  UNL1        0.0000
      8 H           9.7282    6.4316    1.5847 H       1  UNL1        0.0000
      9 H           8.8080    7.9199    1.8209 H       1  UNL1        0.0000
     10 H          10.4084    7.7566    2.5086 H       1  UNL1        0.0000
     11 H          10.7069    4.9407    4.3340 H       1  UNL1        0.0000
     12 H          10.9682    6.4904    5.1202 H       1  UNL1        0.0000
     13 H           9.8951    5.3121    5.8493 H       1  UNL1        0.0000
     14 H           8.6658    8.6340    5.1243 H       1  UNL1        0.0000
     15 H           7.1242    8.3091    4.3637 H       1  UNL1        0.0000
     16 H           7.5604    7.4860    5.8459 H       1  UNL1        0.0000
@<TRIPOS>BOND
     1     8     3    1
     2     9     3    1
     3     3    10    1
     4     3     2    1
     5     6     1    1
     6     1     2    1
     7     1     7    1
     8     2     5    1
     9     2     4    1
    10    11     4    1
    11    15     5    1
    12     5    14    1
    13     5    16    1
    14     4    12    1
    15     4    13    1
