@<TRIPOS>MOLECULE
1
 16 15 0 0 0
SMALL
GASTEIGER

@<TRIPOS>ATOM
      1 C           7.7639    1.7018    1.3640 C.3     1  UNL1        0.0000
      2 SI          9.2625    1.0277    0.3936 Si      1  UNL1        0.0000
      3 C           9.9157    2.2556   -0.9216 C.3     1  UNL1        0.0000
      4 C           8.7157   -0.5655   -0.5163 C.3     1  UNL1        0.0000
      5 C          10.7034    0.6060    1.5705 C.3     1  UNL1        0.0000
      6 H           7.5201    0.9628    2.1319 H       1  UNL1        0.0000
      7 H           6.8954    1.7488    0.6952 H       1  UNL1        0.0000
      8 H          10.9085    1.9680   -1.2540 H       1  UNL1        0.0000
      9 H           9.2824    2.3082   -1.8020 H       1  UNL1        0.0000
     10 H           9.9916    3.2497   -0.4869 H       1  UNL1        0.0000
     11 H           7.9082   -0.3773   -1.2166 H       1  UNL1        0.0000
     12 H           9.5420   -0.9873   -1.0776 H       1  UNL1        0.0000
     13 H           8.3742   -1.3227    0.1811 H       1  UNL1        0.0000
     14 H          11.5562    0.2105    1.0266 H       1  UNL1        0.0000
     15 H          11.0242    1.5052    2.0889 H       1  UNL1        0.0000
     16 H          10.4194   -0.1302    2.3163 H       1  UNL1        0.0000
@<TRIPOS>BOND
     1     9     3    1
     2     8     3    1
     3    11     4    1
     4    12     4    1
     5     3    10    1
     6     3     2    1
     7     4    13    1
     8     4     2    1
     9     2     1    1
    10     2     5    1
    11     7     1    1
    12    14     5    1
    13     1     6    1
    14     5    15    1
    15     5    16    1
