@<TRIPOS>MOLECULE
2
 16 15 0 0 0
SMALL
GASTEIGER

@<TRIPOS>ATOM
      1 SI          7.1706    5.8522    7.4004 Si      1  UNL1        0.0000
      2 C           5.5895    5.1858    6.6261 C.3     1  UNL1        0.0000
      3 C           7.6460    7.4620    6.4686 C.3     1  UNL1        0.0000
      4 C           6.8873    6.3264    9.2437 C.3     1  UNL1        0.0000
      5 C           8.6251    4.6061    7.4142 C.3     1  UNL1        0.0000
      6 H           4.9116    6.0349    6.4869 H       1  UNL1        0.0000
      7 H           5.0940    4.4847    7.3049 H       1  UNL1        0.0000
      8 H           7.2551    8.3395    6.9747 H       1  UNL1        0.0000
      9 H           7.2314    7.4486    5.4631 H       1  UNL1        0.0000
     10 H           8.7201    7.5885    6.3784 H       1  UNL1        0.0000
     11 H           6.0752    7.0391    9.3502 H       1  UNL1        0.0000
     12 H           7.7745    6.7727    9.6815 H       1  UNL1        0.0000
     13 H           6.6340    5.4522    9.8360 H       1  UNL1        0.0000
     14 H           8.6233    4.0045    6.5105 H       1  UNL1        0.0000
     15 H           8.5480    3.9302    8.2604 H       1  UNL1        0.0000
     16 H           9.5845    5.1104    7.4805 H       1  UNL1        0.0000
@<TRIPOS>BOND
     1     9     3    1
     2    10     3    1
     3     3     8    1
     4     3     1    1
     5     6     2    1
     6    14     5    1
     7     2     7    1
     8     2     1    1
     9     1     5    1
    10     1     4    1
    11     5    16    1
    12     5    15    1
    13     4    11    1
    14     4    12    1
    15     4    13    1
