@<TRIPOS>MOLECULE
2
 16 15 0 0 0
SMALL
GASTEIGER

@<TRIPOS>ATOM
      1 SI          3.6443    3.3902   -0.1249 Si      1  UNL1        0.0000
      2 C           2.3850    2.2796    0.7947 C.3     1  UNL1        0.0000
      3 C           5.4452    2.7946    0.1109 C.3     1  UNL1        0.0000
      4 C           3.4532    5.1996    0.4618 C.3     1  UNL1        0.0000
      5 C           3.2254    3.2765   -1.9890 C.3     1  UNL1        0.0000
      6 H           1.3700    2.5486    0.4968 H       1  UNL1        0.0000
      7 H           2.5464    1.2350    0.5059 H       1  UNL1        0.0000
      8 H           5.7400    2.8327    1.1556 H       1  UNL1        0.0000
      9 H           6.1445    3.4117   -0.4462 H       1  UNL1        0.0000
     10 H           5.5712    1.7700   -0.2294 H       1  UNL1        0.0000
     11 H           3.1169    5.2203    1.4947 H       1  UNL1        0.0000
     12 H           2.7218    5.7312   -0.1377 H       1  UNL1        0.0000
     13 H           4.3888    5.7455    0.3926 H       1  UNL1        0.0000
     14 H           3.8836    3.9172   -2.5662 H       1  UNL1        0.0000
     15 H           2.2059    3.5923   -2.1844 H       1  UNL1        0.0000
     16 H           3.3352    2.2665   -2.3714 H       1  UNL1        0.0000
@<TRIPOS>BOND
     1    14     5    1
     2    16     5    1
     3    15     5    1
     4     5     1    1
     5     9     3    1
     6    10     3    1
     7    12     4    1
     8     1     3    1
     9     1     4    1
    10     1     2    1
    11     3     8    1
    12    13     4    1
    13     4    11    1
    14     6     2    1
    15     7     2    1
