@<TRIPOS>MOLECULE
2
 16 15 0 0 0
SMALL
GASTEIGER

@<TRIPOS>ATOM
      1 SI          4.1812    3.4453    5.8216 Si      1  UNL1        0.0000
      2 C           4.1325    3.5727    3.9122 C.3     1  UNL1        0.0000
      3 C           5.5306    4.6617    6.4239 C.3     1  UNL1        0.0000
      4 C           2.4882    3.9653    6.5411 C.3     1  UNL1        0.0000
      5 C           4.6576    1.6946    6.4229 C.3     1  UNL1        0.0000
      6 H           4.0155    4.6166    3.6153 H       1  UNL1        0.0000
      7 H           5.0848    3.2186    3.5018 H       1  UNL1        0.0000
      8 H           5.5743    4.6742    7.5078 H       1  UNL1        0.0000
      9 H           5.3259    5.6742    6.0921 H       1  UNL1        0.0000
     10 H           6.5168    4.3901    6.0606 H       1  UNL1        0.0000
     11 H           1.6951    3.7102    5.8437 H       1  UNL1        0.0000
     12 H           2.4483    5.0356    6.7142 H       1  UNL1        0.0000
     13 H           2.2860    3.4751    7.4882 H       1  UNL1        0.0000
     14 H           4.7437    1.6553    7.5052 H       1  UNL1        0.0000
     15 H           5.6119    1.3797    6.0083 H       1  UNL1        0.0000
     16 H           3.9131    0.9601    6.1297 H       1  UNL1        0.0000
@<TRIPOS>BOND
     1     7     2    1
     2     6     2    1
     3     2     1    1
     4     1     5    1
     5     1     3    1
     6     1     4    1
     7    11     4    1
     8    15     5    1
     9    10     3    1
    10     9     3    1
    11    16     5    1
    12     5    14    1
    13     3     8    1
    14     4    12    1
    15     4    13    1
