@<TRIPOS>MOLECULE
2
 14 13 0 0 0
SMALL
GASTEIGER

@<TRIPOS>ATOM
      1 SI          0.2664    5.0120    3.1562 Si      1  UNL1        0.0000
      2 C           1.4921    3.5950    3.0644 C.3     1  UNL1        0.0000
      3 C           1.1810    6.6127    3.6720 C.3     1  UNL1        0.0000
      4 C          -1.0837    4.5993    4.4493 C.3     1  UNL1        0.0000
      5 C          -0.5431    5.2607    1.4392 C.3     1  UNL1        0.0000
      6 H           1.7911    6.4421    4.5531 H       1  UNL1        0.0000
      7 H           0.4815    7.4116    3.8995 H       1  UNL1        0.0000
      8 H           1.8362    6.9644    2.8813 H       1  UNL1        0.0000
      9 H          -1.9054    5.3075    4.4029 H       1  UNL1        0.0000
     10 H          -0.6839    4.6252    5.4578 H       1  UNL1        0.0000
     11 H          -1.4885    3.6068    4.2811 H       1  UNL1        0.0000
     12 H           0.2110    5.3122    0.6609 H       1  UNL1        0.0000
     13 H          -1.1225    6.1784    1.4043 H       1  UNL1        0.0000
     14 H          -1.2112    4.4408    1.1964 H       1  UNL1        0.0000
@<TRIPOS>BOND
     1    12     5    1
     2    14     5    1
     3    13     5    1
     4     5     1    1
     5     8     3    1
     6     2     1    1
     7     1     3    1
     8     1     4    1
     9     3     7    1
    10     3     6    1
    11    11     4    1
    12     9     4    1
    13     4    10    1
