@<TRIPOS>MOLECULE
2
 16 15 0 0 0
SMALL
GASTEIGER

@<TRIPOS>ATOM
      1 SI          0.0233    0.0361    3.2297 Si      1  UNL1        0.0000
      2 C           1.2732    1.0881    4.2276 C.3     1  UNL1        0.0000
      3 C          -1.0760   -0.8772    4.5027 C.3     1  UNL1        0.0000
      4 C           0.8867   -1.2813    2.1469 C.3     1  UNL1        0.0000
      5 C          -1.0671    1.1813    2.1554 C.3     1  UNL1        0.0000
      6 H           0.7411    1.7051    4.9539 H       1  UNL1        0.0000
      7 H           1.9401    0.4223    4.7868 H       1  UNL1        0.0000
      8 H          -1.5841   -0.1782    5.1589 H       1  UNL1        0.0000
      9 H          -0.5019   -1.5553    5.1264 H       1  UNL1        0.0000
     10 H          -1.8355   -1.4634    3.9965 H       1  UNL1        0.0000
     11 H           1.5070   -1.9422    2.7471 H       1  UNL1        0.0000
     12 H           1.5252   -0.8210    1.3985 H       1  UNL1        0.0000
     13 H           0.1647   -1.9000    1.6213 H       1  UNL1        0.0000
     14 H          -0.5062    2.0673    1.8712 H       1  UNL1        0.0000
     15 H          -1.9490    1.5048    2.6981 H       1  UNL1        0.0000
     16 H          -1.4057    0.6829    1.2526 H       1  UNL1        0.0000
@<TRIPOS>BOND
     1    16     5    1
     2    12     4    1
     3    13     4    1
     4    14     5    1
     5     4    11    1
     6     4     1    1
     7     5    15    1
     8     5     1    1
     9     1     2    1
    10     1     3    1
    11    10     3    1
    12     2     7    1
    13     2     6    1
    14     3     9    1
    15     3     8    1
