@<TRIPOS>MOLECULE
6
 11 11 0 0 0
SMALL
GASTEIGER

@<TRIPOS>ATOM
      1 F          -0.6371   -3.7228    5.3716 F       1  UNL1       -0.1993
      2 F          -1.0224    0.1405    1.5287 F       1  UNL1       -0.2016
      3 F          -0.5934   -0.9934    5.9987 F       1  UNL1       -0.2016
      4 F          -1.0750   -2.5896    0.7996 F       1  UNL1       -0.1993
      5 F          -0.8791   -4.4710    2.7682 F       1  UNL1       -0.1993
      6 C          -0.8117   -0.4319    3.7632 C.ar    1  UNL1        0.0641
      7 C          -0.7333   -2.7865    4.4208 C.ar    1  UNL1        0.1970
      8 C          -0.9309   -0.8786    2.4582 C.ar    1  UNL1        0.1720
      9 C          -0.7138   -1.4283    4.7206 C.ar    1  UNL1        0.1720
     10 C          -0.9579   -2.2120    2.0777 C.ar    1  UNL1        0.1970
     11 C          -0.8573   -3.1725    3.0854 C.ar    1  UNL1        0.1991
@<TRIPOS>BOND
     1     4    10    1
     2     2     8    1
     3    10     8   ar
     4    10    11   ar
     5     8     6   ar
     6     5    11    1
     7    11     7   ar
     8     6     9   ar
     9     7     9   ar
    10     7     1    1
    11     9     3    1
