@<TRIPOS>MOLECULE
3
 32 32 0 0 0
SMALL
GASTEIGER

@<TRIPOS>ATOM
      1 S           9.8914   11.6078    7.8989 S.3     1  UNL1        0.0000
      2 SI          8.6990   16.0067    7.7898 Si      1  UNL1        0.0000
      3 C           5.5634    8.9261   12.9442 C.1     1  UNL1        0.0000
      4 C           6.2802    9.4276   12.1101 C.1     1  UNL1        0.0000
      5 C           7.1223    9.9888   11.1175 C.ar    1  UNL1        0.0000
      6 C           6.7597   11.1547   10.4459 C.ar    1  UNL1        0.0000
      7 H           5.8278   11.6457   10.6908 H       1  UNL1        0.0000
      8 C           7.5742   11.6876    9.4670 C.ar    1  UNL1        0.0000
      9 H           7.2587   12.5862    8.9620 H       1  UNL1        0.0000
     10 C           8.7749   11.0640    9.1415 C.ar    1  UNL1        0.0000
     11 C           9.1411    9.8969    9.8173 C.ar    1  UNL1        0.0000
     12 H          10.0732    9.4181    9.5596 H       1  UNL1        0.0000
     13 C           8.3289    9.3640   10.7897 C.ar    1  UNL1        0.0000
     14 H           8.6213    8.4593   11.3040 H       1  UNL1        0.0000
     15 C           9.2397   13.2263    7.3433 C.3     1  UNL1        0.0000
     16 H           9.7797   13.4105    6.4157 H       1  UNL1        0.0000
     17 H           8.1855   13.0935    7.1066 H       1  UNL1        0.0000
     18 C           9.4853   14.3380    8.3398 C.3     1  UNL1        0.0000
     19 H          10.5611   14.4580    8.4696 H       1  UNL1        0.0000
     20 H           9.0898   14.0508    9.3157 H       1  UNL1        0.0000
     21 C           6.7989   15.8027    7.8061 C.3     1  UNL1        0.0000
     22 H           6.3091   16.7414    7.5672 H       1  UNL1        0.0000
     23 H           6.4359   15.4877    8.7807 H       1  UNL1        0.0000
     24 H           6.4643   15.0719    7.0750 H       1  UNL1        0.0000
     25 C           9.2240   17.3366    9.0465 C.3     1  UNL1        0.0000
     26 H           8.7798   18.2958    8.8013 H       1  UNL1        0.0000
     27 H          10.3012   17.4695    9.0550 H       1  UNL1        0.0000
     28 H           8.9172   17.0828   10.0566 H       1  UNL1        0.0000
     29 C           9.2965   16.4456    6.0367 C.3     1  UNL1        0.0000
     30 H           8.9345   15.7370    5.2975 H       1  UNL1        0.0000
     31 H          10.3808   16.4571    5.9781 H       1  UNL1        0.0000
     32 H           8.9453   17.4295    5.7416 H       1  UNL1        0.0000
@<TRIPOS>BOND
     1    30    29    1
     2    32    29    1
     3    31    29    1
     4    29     2    1
     5    16    15    1
     6    24    21    1
     7    17    15    1
     8    15     1    1
     9    15    18    1
    10    22    21    1
    11     2    21    1
    12     2    18    1
    13     2    25    1
    14    21    23    1
    15     1    10    1
    16    18    19    1
    17    18    20    1
    18    26    25    1
    19     9     8    1
    20    25    27    1
    21    25    28    1
    22    10     8   ar
    23    10    11   ar
    24     8     6   ar
    25    12    11    1
    26    11    13   ar
    27     6     7    1
    28     6     5   ar
    29    13     5   ar
    30    13    14    1
    31     5     4    1
    32     4     3    3
