@<TRIPOS>MOLECULE
2
 15 14 0 0 0
SMALL
GASTEIGER

@<TRIPOS>ATOM
      1 SI          7.2359    0.1579   12.2783 Si      1  UNL1        0.0000
      2 C           7.0841   -0.0897   10.4385 C.3     1  UNL1        0.0000
      3 C           8.1294    1.8141   12.6552 C.3     1  UNL1        0.0000
      4 C           8.2703   -1.2388   13.1108 C.3     1  UNL1        0.0000
      5 C           5.5745    0.1953   13.2386 C.3     1  UNL1        0.0000
      6 H           6.5786   -1.0144   10.1504 H       1  UNL1        0.0000
      7 H           9.0101    1.9423   12.0261 H       1  UNL1        0.0000
      8 H           8.4543    1.8801   13.6905 H       1  UNL1        0.0000
      9 H           7.4600    2.6495   12.4653 H       1  UNL1        0.0000
     10 H           7.7504   -2.1888   13.0377 H       1  UNL1        0.0000
     11 H           8.4367   -1.0381   14.1650 H       1  UNL1        0.0000
     12 H           9.2428   -1.3661   12.6425 H       1  UNL1        0.0000
     13 H           4.9111    0.9596   12.8466 H       1  UNL1        0.0000
     14 H           5.7296    0.3968   14.2946 H       1  UNL1        0.0000
     15 H           5.0605   -0.7570   13.1571 H       1  UNL1        0.0000
@<TRIPOS>BOND
     1     6     2    1
     2     2     1    1
     3     7     3    1
     4     1     3    1
     5     1     4    1
     6     1     5    1
     7     9     3    1
     8    12     4    1
     9     3     8    1
    10    13     5    1
    11    10     4    1
    12     4    11    1
    13    15     5    1
    14     5    14    1
