@<TRIPOS>MOLECULE
2
 6 5 0 0 0
SMALL
GASTEIGER

@<TRIPOS>ATOM
      1 N          11.1853    9.4761   10.8665 N.3     1  UNL1       -0.2310
      2 C          11.0531    9.1112    9.7643 C.3     1  UNL1        0.1063
      3 C          11.2956    9.9513   12.1708 C.3     1  UNL1        0.0032
      4 H          12.2294    9.5960   12.6112 H       1  UNL1        0.0405
      5 H          10.4548    9.5888   12.7656 H       1  UNL1        0.0405
      6 H          11.2946   11.0437   12.1682 H       1  UNL1        0.0405
@<TRIPOS>BOND
     1     2     1    1
     2     1     3    1
     3     6     3    1
     4     3     4    1
     5     3     5    1
