@<TRIPOS>MOLECULE
2
 16 15 0 0 0
SMALL
GASTEIGER

@<TRIPOS>ATOM
      1 SI          5.5605   10.7288    2.5876 Si      1  UNL1        0.0000
      2 C           4.6368   11.9108    1.4556 C.3     1  UNL1        0.0000
      3 C           6.3426   11.6913    4.0433 C.3     1  UNL1        0.0000
      4 C           4.4282    9.3442    3.2925 C.3     1  UNL1        0.0000
      5 C           6.9955    9.7747    1.7329 C.3     1  UNL1        0.0000
      6 H           4.0805   11.3272    0.7120 H       1  UNL1        0.0000
      7 H           5.3994   12.4492    0.8796 H       1  UNL1        0.0000
      8 H           7.2380   12.2149    3.7219 H       1  UNL1        0.0000
      9 H           6.6296   11.0305    4.8558 H       1  UNL1        0.0000
     10 H           5.6477   12.4263    4.4416 H       1  UNL1        0.0000
     11 H           3.7357    9.7201    4.0390 H       1  UNL1        0.0000
     12 H           5.0224    8.5713    3.7699 H       1  UNL1        0.0000
     13 H           3.8464    8.8660    2.5100 H       1  UNL1        0.0000
     14 H           6.6231    9.1183    0.9519 H       1  UNL1        0.0000
     15 H           7.5565    9.1634    2.4341 H       1  UNL1        0.0000
     16 H           7.6945   10.4644    1.2700 H       1  UNL1        0.0000
@<TRIPOS>BOND
     1     6     2    1
     2     7     2    1
     3    14     5    1
     4    16     5    1
     5     2     1    1
     6     5    15    1
     7     5     1    1
     8    13     4    1
     9     1     4    1
    10     1     3    1
    11     4    12    1
    12     4    11    1
    13     8     3    1
    14     3    10    1
    15     3     9    1
