@<TRIPOS>MOLECULE
2
 16 15 0 0 0
SMALL
GASTEIGER

@<TRIPOS>ATOM
      1 SI          6.2379    6.4672    4.9395 Si      1  UNL1        0.0000
      2 C           4.3867    6.4150    4.4780 C.3     1  UNL1        0.0000
      3 C           6.7827    8.2870    5.1525 C.3     1  UNL1        0.0000
      4 C           7.4550    5.7179    3.6635 C.3     1  UNL1        0.0000
      5 C           6.5146    5.5994    6.6222 C.3     1  UNL1        0.0000
      6 H           3.9204    6.7697    5.4066 H       1  UNL1        0.0000
      7 H           6.7386    8.8293    4.2126 H       1  UNL1        0.0000
      8 H           7.8018    8.3578    5.5195 H       1  UNL1        0.0000
      9 H           7.3322    6.1482    2.6745 H       1  UNL1        0.0000
     10 H           7.3851    4.6391    3.5782 H       1  UNL1        0.0000
     11 H           7.5628    5.6465    6.8983 H       1  UNL1        0.0000
     12 H           6.2301    4.5527    6.6251 H       1  UNL1        0.0000
     13 H           4.2492    7.2523    3.7769 H       1  UNL1        0.0000
     14 H           6.1464    8.8107    5.8592 H       1  UNL1        0.0000
     15 H           8.4697    5.9417    3.9776 H       1  UNL1        0.0000
     16 H           5.9553    6.0972    7.4082 H       1  UNL1        0.0000
@<TRIPOS>BOND
     1     9     4    1
     2    10     4    1
     3     4    15    1
     4     4     1    1
     5    13     2    1
     6     7     3    1
     7     2     1    1
     8     2     6    1
     9     1     3    1
    10     1     5    1
    11     3     8    1
    12     3    14    1
    13     5    12    1
    14     5    11    1
    15     5    16    1
