@<TRIPOS>MOLECULE
2
 16 15 0 0 0
SMALL
GASTEIGER

@<TRIPOS>ATOM
      1 SI          4.7661   15.4500   -0.6997 Si      1  UNL1        0.0000
      2 C           3.4015   15.6646    0.5778 C.3     1  UNL1        0.0000
      3 C           6.4700   15.2234    0.1453 C.3     1  UNL1        0.0000
      4 C           4.9699   16.9329   -1.9081 C.3     1  UNL1        0.0000
      5 C           4.3823   13.9358   -1.8113 C.3     1  UNL1        0.0000
      6 H           2.4560   15.7646    0.0310 H       1  UNL1        0.0000
      7 H           3.5564   16.6275    1.0806 H       1  UNL1        0.0000
      8 H           6.8189   16.1593    0.5702 H       1  UNL1        0.0000
      9 H           7.2206   14.8915   -0.5655 H       1  UNL1        0.0000
     10 H           6.4265   14.4933    0.9491 H       1  UNL1        0.0000
     11 H           5.7729   16.7693   -2.6206 H       1  UNL1        0.0000
     12 H           5.1944   17.8480   -1.3686 H       1  UNL1        0.0000
     13 H           4.0603   17.1054   -2.4757 H       1  UNL1        0.0000
     14 H           4.2589   13.0308   -1.2265 H       1  UNL1        0.0000
     15 H           5.1795   13.7603   -2.5265 H       1  UNL1        0.0000
     16 H           3.4684   14.0907   -2.3767 H       1  UNL1        0.0000
@<TRIPOS>BOND
     1    11     4    1
     2    15     5    1
     3    13     4    1
     4    16     5    1
     5     4    12    1
     6     4     1    1
     7     5    14    1
     8     5     1    1
     9     1     3    1
    10     1     2    1
    11     9     3    1
    12     6     2    1
    13     3     8    1
    14     3    10    1
    15     2     7    1
