@<TRIPOS>MOLECULE
2
 16 15 0 0 0
SMALL
GASTEIGER

@<TRIPOS>ATOM
      1 SI          3.5321   -0.2709   17.5066 Si      1  UNL1        0.0000
      2 C           2.8751    1.4771   17.6553 C.3     1  UNL1        0.0000
      3 H           1.8405    1.3940   17.2922 H       1  UNL1        0.0000
      4 H           3.3797    2.1258   16.9234 H       1  UNL1        0.0000
      5 C           5.2458   -0.7167   18.2711 C.3     1  UNL1        0.0000
      6 H           6.0644   -0.1681   17.8131 H       1  UNL1        0.0000
      7 H           5.4488   -1.7720   18.1099 H       1  UNL1        0.0000
      8 H           5.2853   -0.5468   19.3416 H       1  UNL1        0.0000
      9 C           3.7654   -0.8089   15.6640 C.3     1  UNL1        0.0000
     10 H           2.8406   -0.6940   15.1066 H       1  UNL1        0.0000
     11 H           4.0725   -1.8465   15.5723 H       1  UNL1        0.0000
     12 H           4.5186   -0.2039   15.1652 H       1  UNL1        0.0000
     13 C           2.2866   -1.5167   18.2523 C.3     1  UNL1        0.0000
     14 H           2.1115   -1.3063   19.3009 H       1  UNL1        0.0000
     15 H           2.6428   -2.5394   18.1714 H       1  UNL1        0.0000
     16 H           1.3314   -1.4645   17.7392 H       1  UNL1        0.0000
@<TRIPOS>BOND
     1    10     9    1
     2    12     9    1
     3    11     9    1
     4     9     1    1
     5     4     2    1
     6     3     2    1
     7     1     2    1
     8     1    13    1
     9     1     5    1
    10    16    13    1
    11     6     5    1
    12     7     5    1
    13    15    13    1
    14    13    14    1
    15     5     8    1
