@<TRIPOS>MOLECULE
2
 16 15 0 0 0
SMALL
GASTEIGER

@<TRIPOS>ATOM
      1 SI         -0.9103    2.9885   17.6145 Si      1  UNL1        0.0000
      2 C           0.7393    3.7844   18.0089 C.3     1  UNL1        0.0000
      3 H           0.5209    4.8226   18.2909 H       1  UNL1        0.0000
      4 H           1.2857    3.8431   17.0512 H       1  UNL1        0.0000
      5 C          -1.8559    3.8958   16.1918 C.3     1  UNL1        0.0000
      6 H          -2.0607    4.9310   16.4514 H       1  UNL1        0.0000
      7 H          -2.8081    3.4260   15.9648 H       1  UNL1        0.0000
      8 H          -1.2723    3.9027   15.2756 H       1  UNL1        0.0000
      9 C          -0.8227    1.1707   17.0063 C.3     1  UNL1        0.0000
     10 H          -0.2154    1.0807   16.1105 H       1  UNL1        0.0000
     11 H          -1.8139    0.7999   16.7606 H       1  UNL1        0.0000
     12 H          -0.4041    0.5080   17.7570 H       1  UNL1        0.0000
     13 C          -2.1788    3.0183   19.0607 C.3     1  UNL1        0.0000
     14 H          -1.8714    2.3917   19.8910 H       1  UNL1        0.0000
     15 H          -3.1418    2.6490   18.7212 H       1  UNL1        0.0000
     16 H          -2.3371    4.0239   19.4385 H       1  UNL1        0.0000
@<TRIPOS>BOND
     1     8     5    1
     2     7     5    1
     3    10     9    1
     4     5     6    1
     5     5     1    1
     6    11     9    1
     7     9     1    1
     8     9    12    1
     9     4     2    1
    10     1     2    1
    11     1    13    1
    12     2     3    1
    13    15    13    1
    14    13    16    1
    15    13    14    1
