@<TRIPOS>MOLECULE
2
 16 15 0 0 0
SMALL
GASTEIGER

@<TRIPOS>ATOM
      1 SI          1.6136    0.3451   21.8363 Si      1  UNL1        0.0000
      2 C           1.0192    1.4663   20.4603 C.3     1  UNL1        0.0000
      3 H           0.1079    1.9952   20.7665 H       1  UNL1        0.0000
      4 H           0.7241    0.8275   19.6174 H       1  UNL1        0.0000
      5 C           1.3761    1.0363   23.6231 C.3     1  UNL1        0.0000
      6 H           2.1427    1.7543   23.8944 H       1  UNL1        0.0000
      7 H           1.4201    0.2308   24.3500 H       1  UNL1        0.0000
      8 H           0.4108    1.5196   23.7431 H       1  UNL1        0.0000
      9 C           3.4845    0.0152   21.5650 C.3     1  UNL1        0.0000
     10 H           3.6797   -1.0121   21.2738 H       1  UNL1        0.0000
     11 H           4.0683    0.2128   22.4594 H       1  UNL1        0.0000
     12 H           3.8371    0.6742   20.7691 H       1  UNL1        0.0000
     13 C           0.7304   -1.3646   21.9589 C.3     1  UNL1        0.0000
     14 H          -0.2966   -1.2472   22.2919 H       1  UNL1        0.0000
     15 H           1.2258   -2.0306   22.6596 H       1  UNL1        0.0000
     16 H           0.6999   -1.8687   20.9985 H       1  UNL1        0.0000
@<TRIPOS>BOND
     1     4     2    1
     2     2     3    1
     3     2     1    1
     4    12     9    1
     5    16    13    1
     6    10     9    1
     7     9     1    1
     8     9    11    1
     9     1    13    1
    10     1     5    1
    11    13    14    1
    12    13    15    1
    13     5     8    1
    14     5     6    1
    15     5     7    1
