@<TRIPOS>MOLECULE
1
 22 22 0 0 0
SMALL
GASTEIGER

@<TRIPOS>ATOM
      1 C           4.5398    7.5741    4.8455 C.3     1  UNL1       -0.0219
      2 H           5.3823    7.1586    5.4101 H       1  UNL1        0.0317
      3 H           3.9366    8.1762    5.5399 H       1  UNL1        0.0317
      4 C           3.7534    6.4812    4.2698 C.ar    1  UNL1       -0.0261
      5 C           2.5723    6.7309    3.5325 C.ar    1  UNL1        0.0324
      6 C           1.8615    5.6831    2.9737 C.ar    1  UNL1       -0.0404
      7 H           0.9556    5.8704    2.4169 H       1  UNL1        0.0636
      8 C           2.2951    4.3727    3.1096 C.ar    1  UNL1       -0.0600
      9 H           1.7275    3.5696    2.6643 H       1  UNL1        0.0618
     10 C           3.4487    4.1075    3.8257 C.ar    1  UNL1       -0.0614
     11 H           3.7898    3.0893    3.9461 H       1  UNL1        0.0618
     12 C           4.1554    5.1447    4.3992 C.ar    1  UNL1       -0.0568
     13 H           5.0434    4.9244    4.9783 H       1  UNL1        0.0621
     14 N           2.1735    8.1148    3.3797 N.pl3   1  UNL1       -0.3358
     15 C           1.3951    8.3693    2.1671 C.3     1  UNL1        0.0004
     16 H           0.3611    8.0070    2.2492 H       1  UNL1        0.0428
     17 H           1.8665    7.8903    1.3127 H       1  UNL1        0.0428
     18 H           1.3583    9.4455    1.9975 H       1  UNL1        0.0428
     19 C           1.3516    8.5045    4.5277 C.3     1  UNL1        0.0004
     20 H           0.4074    7.9410    4.5474 H       1  UNL1        0.0428
     21 H           1.1154    9.5657    4.4628 H       1  UNL1        0.0428
     22 H           1.8766    8.3110    5.4596 H       1  UNL1        0.0428
@<TRIPOS>BOND
     1    17    15    1
     2    18    15    1
     3    15    16    1
     4    15    14    1
     5     7     6    1
     6     9     8    1
     7     6     8   ar
     8     6     5   ar
     9     8    10   ar
    10    14     5    1
    11    14    19    1
    12     5     4   ar
    13    10    11    1
    14    10    12   ar
    15     4    12   ar
    16     4     1    1
    17    12    13    1
    18    21    19    1
    19    19    20    1
    20    19    22    1
    21     1     2    1
    22     1     3    1
