@<TRIPOS>MOLECULE
1
 22 22 0 0 0
SMALL
GASTEIGER

@<TRIPOS>ATOM
      1 C           4.5549    8.4493    1.0390 C.3     1  UNL1       -0.0219
      2 H           4.3212    7.3790    1.1436 H       1  UNL1        0.0317
      3 H           3.8122    8.9022    0.3706 H       1  UNL1        0.0317
      4 C           5.8966    8.6446    0.4798 C.ar    1  UNL1       -0.0261
      5 C           7.0444    8.1514    1.1432 C.ar    1  UNL1        0.0324
      6 C           8.3037    8.3392    0.6006 C.ar    1  UNL1       -0.0404
      7 H           9.1805    7.9562    1.1007 H       1  UNL1        0.0636
      8 C           8.4700    9.0349   -0.5880 C.ar    1  UNL1       -0.0600
      9 H           9.4597    9.1743   -0.9957 H       1  UNL1        0.0618
     10 C           7.3610    9.5457   -1.2404 C.ar    1  UNL1       -0.0614
     11 H           7.4812   10.0912   -2.1654 H       1  UNL1        0.0618
     12 C           6.0994    9.3473   -0.7162 C.ar    1  UNL1       -0.0568
     13 H           5.2374    9.7362   -1.2418 H       1  UNL1        0.0621
     14 N           6.8228    7.4757    2.4055 N.pl3   1  UNL1       -0.3358
     15 C           6.5955    6.0506    2.1454 C.3     1  UNL1        0.0004
     16 H           7.5044    5.5737    1.7531 H       1  UNL1        0.0428
     17 H           5.8018    5.9185    1.4145 H       1  UNL1        0.0428
     18 H           6.3020    5.5501    3.0659 H       1  UNL1        0.0428
     19 C           7.9389    7.5919    3.3418 C.3     1  UNL1        0.0004
     20 H           8.8264    7.0328    3.0157 H       1  UNL1        0.0428
     21 H           7.6264    7.1784    4.3010 H       1  UNL1        0.0428
     22 H           8.2054    8.6387    3.4744 H       1  UNL1        0.0428
@<TRIPOS>BOND
     1    11    10    1
     2    13    12    1
     3    10    12   ar
     4    10     8   ar
     5     9     8    1
     6    12     4   ar
     7     8     6   ar
     8     3     1    1
     9     4     1    1
    10     4     5   ar
    11     6     7    1
    12     6     5   ar
    13     1     2    1
    14     5    14    1
    15    17    15    1
    16    16    15    1
    17    15    14    1
    18    15    18    1
    19    14    19    1
    20    20    19    1
    21    19    22    1
    22    19    21    1
