@<TRIPOS>MOLECULE
3
 61 61 0 0 0
SMALL
GASTEIGER

@<TRIPOS>ATOM
      1 SI          6.1701   -3.3636    2.8283 Si      1  UNL1        0.0000
      2 N          12.1979    0.5220    3.1239 N.pl3   1  UNL1        0.0000
      3 C          10.8942    0.6539    2.8062 C.3     1  UNL1        0.0000
      4 N          10.5628   -0.4703    2.1457 N.pl3   1  UNL1        0.0000
      5 C          11.6490   -1.3020    2.0530 C.2     1  UNL1        0.0000
      6 H          11.6035   -2.2514    1.5604 H       1  UNL1        0.0000
      7 C          12.6801   -0.6745    2.6631 C.2     1  UNL1        0.0000
      8 H          13.7034   -0.9588    2.7901 H       1  UNL1        0.0000
      9 C          13.0090    1.5758    3.6737 C.3     1  UNL1        0.0000
     10 H          13.7202    1.1549    4.3890 H       1  UNL1        0.0000
     11 H          12.3434    2.2948    4.1660 H       1  UNL1        0.0000
     12 C          13.7656    2.2952    2.5554 C.3     1  UNL1        0.0000
     13 H          13.0479    2.5941    1.7781 H       1  UNL1        0.0000
     14 H          14.2504    3.1987    2.9549 H       1  UNL1        0.0000
     15 O          14.7336    1.4134    2.0258 O.3     1  UNL1        0.0000
     16 C          15.2634    1.8570    0.8035 C.3     1  UNL1        0.0000
     17 H          15.9609    1.0912    0.4695 H       1  UNL1        0.0000
     18 H          15.7952    2.8091    0.9227 H       1  UNL1        0.0000
     19 H          14.4718    1.9872    0.0565 H       1  UNL1        0.0000
     20 O           5.8165   -2.8568    4.3263 O.3     1  UNL1        0.0000
     21 C           9.2619   -0.7374    1.5872 C.3     1  UNL1        0.0000
     22 H           9.3789   -1.0499    0.5451 H       1  UNL1        0.0000
     23 H           8.7036    0.2099    1.6073 H       1  UNL1        0.0000
     24 C           8.5114   -1.8112    2.3766 C.3     1  UNL1        0.0000
     25 H           8.4116   -1.4811    3.4118 H       1  UNL1        0.0000
     26 H           9.0963   -2.7339    2.3839 H       1  UNL1        0.0000
     27 C           6.6149   -2.8261    5.4941 C.3     1  UNL1        0.0000
     28 H           7.6735   -2.8047    5.2071 H       1  UNL1        0.0000
     29 C           7.1276   -2.0812    1.7960 C.3     1  UNL1        0.0000
     30 H           7.2325   -2.4208    0.7655 H       1  UNL1        0.0000
     31 H           6.5759   -1.1432    1.7528 H       1  UNL1        0.0000
     32 C           6.3553   -4.0855    6.3133 C.3     1  UNL1        0.0000
     33 H           6.6001   -4.9557    5.7114 H       1  UNL1        0.0000
     34 H           5.3055   -4.1353    6.5909 H       1  UNL1        0.0000
     35 H           6.9648   -4.0837    7.2127 H       1  UNL1        0.0000
     36 O           4.7918   -3.5604    2.0039 O.3     1  UNL1        0.0000
     37 C           3.5934   -4.1962    2.4099 C.3     1  UNL1        0.0000
     38 H           3.8489   -5.0732    3.0193 H       1  UNL1        0.0000
     39 C           2.7597   -3.2335    3.2468 C.3     1  UNL1        0.0000
     40 H           3.3552   -2.8902    4.0868 H       1  UNL1        0.0000
     41 H           1.8619   -3.7264    3.6100 H       1  UNL1        0.0000
     42 H           2.4795   -2.3733    2.6447 H       1  UNL1        0.0000
     43 C           2.8482   -4.6458    1.1575 C.3     1  UNL1        0.0000
     44 H           3.4554   -5.3440    0.5873 H       1  UNL1        0.0000
     45 H           2.6323   -3.7834    0.5324 H       1  UNL1        0.0000
     46 H           1.9158   -5.1314    1.4327 H       1  UNL1        0.0000
     47 O           7.0553   -4.7195    3.0528 O.3     1  UNL1        0.0000
     48 C           7.7001   -5.5531    2.1120 C.3     1  UNL1        0.0000
     49 H           8.3100   -4.9245    1.4475 H       1  UNL1        0.0000
     50 C           8.6103   -6.5050    2.8832 C.3     1  UNL1        0.0000
     51 H           9.3069   -5.9385    3.4959 H       1  UNL1        0.0000
     52 H           9.1704   -7.1307    2.1938 H       1  UNL1        0.0000
     53 H           8.0138   -7.1382    3.5349 H       1  UNL1        0.0000
     54 C           6.6787   -6.3091    1.2692 C.3     1  UNL1        0.0000
     55 H           6.0443   -5.5990    0.7465 H       1  UNL1        0.0000
     56 H           6.0550   -6.9260    1.9116 H       1  UNL1        0.0000
     57 H           7.1831   -6.9433    0.5452 H       1  UNL1        0.0000
     58 C           6.2717   -1.5580    6.2688 C.3     1  UNL1        0.0000
     59 H           6.4370   -0.6855    5.6426 H       1  UNL1        0.0000
     60 H           6.8924   -1.4807    7.1573 H       1  UNL1        0.0000
     61 H           5.2258   -1.5783    6.5637 H       1  UNL1        0.0000
@<TRIPOS>BOND
     1    19    16    1
     2    17    16    1
     3    45    43    1
     4    22    21    1
     5    57    54    1
     6    44    43    1
     7    55    54    1
     8    30    29    1
     9    16    18    1
    10    16    15    1
    11    43    46    1
    12    43    37    1
    13    54    56    1
    14    54    48    1
    15    49    48    1
    16     6     5    1
    17    21    23    1
    18    21     4    1
    19    21    24    1
    20    31    29    1
    21    13    12    1
    22    29    24    1
    23    29     1    1
    24    36    37    1
    25    36     1    1
    26    15    12    1
    27     5     4    1
    28     5     7    2
    29    48    50    1
    30    48    47    1
    31     4     3    1
    32    52    50    1
    33    24    26    1
    34    24    25    1
    35    37    38    1
    36    37    39    1
    37    12    14    1
    38    12     9    1
    39    42    39    1
    40     7     8    1
    41     7     2    1
    42     3     2    1
    43     1    47    1
    44     1    20    1
    45    50    51    1
    46    50    53    1
    47     2     9    1
    48    39    41    1
    49    39    40    1
    50     9    11    1
    51     9    10    1
    52    20    27    1
    53    28    27    1
    54    27    58    1
    55    27    32    1
    56    59    58    1
    57    33    32    1
    58    58    61    1
    59    58    60    1
    60    32    34    1
    61    32    35    1
