@<TRIPOS>MOLECULE
2
 16 15 0 0 0
SMALL
GASTEIGER

@<TRIPOS>ATOM
      1 SI         10.4128    9.2823   14.3024 Si      1  UNL1        0.0000
      2 C           8.5842    8.8587   14.4962 C.3     1  UNL1        0.0000
      3 H           8.3455    8.8824   15.5655 H       1  UNL1        0.0000
      4 H           8.4411    7.8167   14.1900 H       1  UNL1        0.0000
      5 C          10.9624    9.0607   12.4803 C.3     1  UNL1        0.0000
      6 H          11.0982    8.0117   12.2394 H       1  UNL1        0.0000
      7 H          11.9032    9.5626   12.2742 H       1  UNL1        0.0000
      8 H          10.2100    9.4567   11.8046 H       1  UNL1        0.0000
      9 C          10.6996   11.1032   14.8205 C.3     1  UNL1        0.0000
     10 H           9.9185   11.7315   14.3992 H       1  UNL1        0.0000
     11 H          11.6627   11.4804   14.4885 H       1  UNL1        0.0000
     12 H          10.6625   11.2112   15.8995 H       1  UNL1        0.0000
     13 C          11.5883    8.2008   15.3671 C.3     1  UNL1        0.0000
     14 H          11.3608    8.2973   16.4238 H       1  UNL1        0.0000
     15 H          12.6270    8.4833   15.2292 H       1  UNL1        0.0000
     16 H          11.4981    7.1506   15.1087 H       1  UNL1        0.0000
@<TRIPOS>BOND
     1     8     5    1
     2     6     5    1
     3     7     5    1
     4     5     1    1
     5     4     2    1
     6     1     2    1
     7     1     9    1
     8     1    13    1
     9    10     9    1
    10    11     9    1
    11     2     3    1
    12     9    12    1
    13    16    13    1
    14    15    13    1
    15    13    14    1
