@<TRIPOS>MOLECULE
2
 16 15 0 0 0
SMALL
GASTEIGER

@<TRIPOS>ATOM
      1 SI          5.1940    7.5733   14.4694 Si      1  UNL1        0.0000
      2 C           4.9125    6.9165   16.2108 C.3     1  UNL1        0.0000
      3 H           3.9654    6.3615   16.2129 H       1  UNL1        0.0000
      4 H           4.7619    7.7614   16.8938 H       1  UNL1        0.0000
      5 C           5.3193    6.0959   13.2585 C.3     1  UNL1        0.0000
      6 H           6.3039    5.6416   13.3166 H       1  UNL1        0.0000
      7 H           5.1574    6.4014   12.2293 H       1  UNL1        0.0000
      8 H           4.5868    5.3286   13.4933 H       1  UNL1        0.0000
      9 C           6.8578    8.5214   14.3757 C.3     1  UNL1        0.0000
     10 H           6.9071    9.3178   15.1122 H       1  UNL1        0.0000
     11 H           6.9984    8.9752   13.3995 H       1  UNL1        0.0000
     12 H           7.6932    7.8479   14.5480 H       1  UNL1        0.0000
     13 C           3.8323    8.7574   13.8189 C.3     1  UNL1        0.0000
     14 H           2.8655    8.2644   13.7921 H       1  UNL1        0.0000
     15 H           4.0480    9.1103   12.8149 H       1  UNL1        0.0000
     16 H           3.7356    9.6292   14.4584 H       1  UNL1        0.0000
@<TRIPOS>BOND
     1     7     5    1
     2    15    13    1
     3     5     6    1
     4     5     8    1
     5     5     1    1
     6    11     9    1
     7    14    13    1
     8    13    16    1
     9    13     1    1
    10     9     1    1
    11     9    12    1
    12     9    10    1
    13     1     2    1
    14     2     3    1
    15     2     4    1
