@<TRIPOS>MOLECULE
14
 16 15 0 0 0
SMALL
GASTEIGER

@<TRIPOS>ATOM
      1 SI          7.2860    7.7148   19.9309 Si      1  UNL1        0.0000
      2 C           7.4208    9.1180   18.6241 C.3     1  UNL1        0.0000
      3 H           8.4513    9.4247   18.4725 H       1  UNL1        0.0000
      4 H           6.8720    9.9976   18.9463 H       1  UNL1        0.0000
      5 H           7.0095    8.8084   17.6642 H       1  UNL1        0.0000
      6 C           5.5668    7.8921   20.7557 C.3     1  UNL1        0.0000
      7 H           4.7877    8.0716   20.0220 H       1  UNL1        0.0000
      8 H           5.5569    8.7262   21.4505 H       1  UNL1        0.0000
      9 H           5.2995    7.0003   21.3131 H       1  UNL1        0.0000
     10 C           8.5896    8.1228   21.2809 C.3     1  UNL1        0.0000
     11 H           8.5105    7.4385   22.1198 H       1  UNL1        0.0000
     12 H           8.4684    9.1305   21.6668 H       1  UNL1        0.0000
     13 H           9.5998    8.0424   20.8903 H       1  UNL1        0.0000
     14 C           7.5198    6.0113   19.1548 C.3     1  UNL1        0.0000
     15 H           7.1376    5.2630   19.8649 H       1  UNL1        0.0000
     16 H           8.6022    5.8255   19.0863 H       1  UNL1        0.0000
@<TRIPOS>BOND
     1     5     2    1
     2     3     2    1
     3     2     4    1
     4     2     1    1
     5    16    14    1
     6    14    15    1
     7    14     1    1
     8     1     6    1
     9     1    10    1
    10     7     6    1
    11     6     9    1
    12     6     8    1
    13    13    10    1
    14    10    12    1
    15    10    11    1
