@<TRIPOS>MOLECULE
2
 16 15 0 0 0
SMALL
GASTEIGER

@<TRIPOS>ATOM
      1 SI          0.5057   -0.2670    5.5864 Si      1  UNL1        0.0000
      2 C          -0.7337   -0.0698    4.1509 C.3     1  UNL1        0.0000
      3 C           2.3374    0.0781    5.0778 C.3     1  UNL1        0.0000
      4 C           0.0286    0.9508    6.9859 C.3     1  UNL1        0.0000
      5 C           0.4962   -2.0413    6.3147 C.3     1  UNL1        0.0000
      6 H          -1.7191    0.2016    4.5494 H       1  UNL1        0.0000
      7 H          -0.8390   -1.0279    3.6216 H       1  UNL1        0.0000
      8 H           3.0269   -0.0888    5.9023 H       1  UNL1        0.0000
      9 H           2.6460   -0.5718    4.2568 H       1  UNL1        0.0000
     10 H           2.4538    1.1239    4.7504 H       1  UNL1        0.0000
     11 H           0.7564    0.9389    7.7901 H       1  UNL1        0.0000
     12 H          -0.0128    1.9593    6.5825 H       1  UNL1        0.0000
     13 H          -0.9386    0.7141    7.4166 H       1  UNL1        0.0000
     14 H           1.1811   -2.1238    7.1509 H       1  UNL1        0.0000
     15 H          -0.4907   -2.3081    6.6754 H       1  UNL1        0.0000
     16 H           0.7879   -2.7805    5.5764 H       1  UNL1        0.0000
@<TRIPOS>BOND
     1     7     2    1
     2     2     6    1
     3     2     1    1
     4     9     3    1
     5    10     3    1
     6     3     1    1
     7     3     8    1
     8    16     5    1
     9     1     5    1
    10     1     4    1
    11     5    15    1
    12     5    14    1
    13    12     4    1
    14     4    13    1
    15     4    11    1
