@<TRIPOS>MOLECULE
1
 4 3 0 0 0
SMALL
GASTEIGER

@<TRIPOS>ATOM
      1 C           9.4280    0.7656    8.1462 C.3     1  UNL1       -0.0681
      2 H           8.5440    0.3567    8.6343 H       1  UNL1        0.0227
      3 H           9.1999    0.8368    7.0843 H       1  UNL1        0.0227
      4 H          10.2203    0.0239    8.2484 H       1  UNL1        0.0227
@<TRIPOS>BOND
     1     3     1    1
     2     1     4    1
     3     1     2    1
