@<TRIPOS>MOLECULE
1
 4 3 0 0 0
SMALL
GASTEIGER

@<TRIPOS>ATOM
      1 C          12.1022    2.5809    9.9709 C.3     1  UNL1       -0.0681
      2 H          12.4212    1.5367   10.0005 H       1  UNL1        0.0227
      3 H          12.8561    3.1384    9.4141 H       1  UNL1        0.0227
      4 H          12.1383    2.9472   10.9979 H       1  UNL1        0.0227
@<TRIPOS>BOND
     1     3     1    1
     2     1     2    1
     3     1     4    1
