@<TRIPOS>MOLECULE
1
 4 3 0 0 0
SMALL
GASTEIGER

@<TRIPOS>ATOM
      1 C           9.3772    1.7876   10.9916 C.3     1  UNL1       -0.0681
      2 H           9.6170    2.4200   11.8508 H       1  UNL1        0.0227
      3 H           8.2984    1.6208   11.0183 H       1  UNL1        0.0227
      4 H           9.8409    0.8195   11.1863 H       1  UNL1        0.0227
@<TRIPOS>BOND
     1     1     3    1
     2     1     4    1
     3     1     2    1
