@<TRIPOS>MOLECULE
1
 11 11 0 0 0
SMALL
GASTEIGER

@<TRIPOS>ATOM
      1 C          -1.4279    2.7410    3.9631 C.ar    1  UNL1        0.0641
      2 C          -1.3528    3.7872    4.8676 C.ar    1  UNL1        0.1720
      3 C          -2.3884    4.2587    5.6525 C.ar    1  UNL1        0.1970
      4 C          -3.6225    3.6167    5.5355 C.ar    1  UNL1        0.1991
      5 C          -3.7797    2.5651    4.6297 C.ar    1  UNL1        0.1970
      6 C          -2.6894    2.1636    3.8678 C.ar    1  UNL1        0.1720
      7 F          -0.0974    4.3890    4.8766 F       1  UNL1       -0.2016
      8 F          -2.2321    5.2821    6.5007 F       1  UNL1       -0.1993
      9 F          -4.6558    4.0170    6.2834 F       1  UNL1       -0.1993
     10 F          -4.9683    1.9643    4.5216 F       1  UNL1       -0.1993
     11 F          -2.8253    1.1787    2.9503 F       1  UNL1       -0.2016
@<TRIPOS>BOND
     1    11     6    1
     2     6     1   ar
     3     6     5   ar
     4     1     2   ar
     5    10     5    1
     6     5     4   ar
     7     2     7    1
     8     2     3   ar
     9     4     3   ar
    10     4     9    1
    11     3     8    1
