@<TRIPOS>MOLECULE
1
 14 14 0 0 0
SMALL
GASTEIGER

@<TRIPOS>ATOM
      1 C           8.3110    7.5357   11.4216 C.3     1  UNL1        0.0001
      2 C           7.0021    7.4802   11.3196 C.3     1  UNL1       -0.0012
      3 H           6.3593    8.1163   11.9180 H       1  UNL1        0.0361
      4 C           6.3469    6.5619   10.3980 C.ar    1  UNL1       -0.0431
      5 C           7.1176    5.7131    9.5956 C.ar    1  UNL1       -0.0583
      6 H           8.2027    5.7661    9.6867 H       1  UNL1        0.0620
      7 C           6.5210    4.8364    8.7163 C.ar    1  UNL1       -0.0615
      8 H           7.1310    4.1878    8.1033 H       1  UNL1        0.0618
      9 C           5.1378    4.7851    8.6168 C.ar    1  UNL1       -0.0617
     10 H           4.6680    4.0982    7.9284 H       1  UNL1        0.0618
     11 C           4.3635    5.6200    9.4055 C.ar    1  UNL1       -0.0615
     12 H           3.2856    5.5836    9.3313 H       1  UNL1        0.0618
     13 C           4.9580    6.5013   10.2884 C.ar    1  UNL1       -0.0583
     14 H           4.3455    7.1495   10.8998 H       1  UNL1        0.0620
@<TRIPOS>BOND
     1    10     9    1
     2     8     7    1
     3     9     7   ar
     4     9    11   ar
     5     7     5   ar
     6    12    11    1
     7    11    13   ar
     8     5     6    1
     9     5     4   ar
    10    13     4   ar
    11    13    14    1
    12     4     2    1
    13     2     1    1
    14     2     3    1
