@<TRIPOS>MOLECULE
2
 15 14 0 0 0
SMALL
GASTEIGER

@<TRIPOS>ATOM
      1 SI          0.2646    0.6016    9.3398 Si      1  UNL1        0.0000
      2 C          -1.3598    2.9063   10.5444 C.1     1  UNL1        0.0000
      3 C          -0.7179    2.0018   10.0583 C.1     1  UNL1        0.0000
      4 C          -0.9356   -0.6705    8.5758 C.3     1  UNL1        0.0000
      5 H          -0.4032   -1.5091    8.1358 H       1  UNL1        0.0000
      6 H          -1.5384   -0.2163    7.7955 H       1  UNL1        0.0000
      7 H          -1.6151   -1.0674    9.3239 H       1  UNL1        0.0000
      8 C           1.2727   -0.2180   10.7391 C.3     1  UNL1        0.0000
      9 H           1.8777   -1.0402   10.3673 H       1  UNL1        0.0000
     10 H           0.6214   -0.6128   11.5131 H       1  UNL1        0.0000
     11 H           1.9416    0.4973   11.2079 H       1  UNL1        0.0000
     12 C           1.4381    1.2869    8.0020 C.3     1  UNL1        0.0000
     13 H           0.8798    1.7624    7.2014 H       1  UNL1        0.0000
     14 H           2.0462    0.5021    7.5605 H       1  UNL1        0.0000
     15 H           2.1101    2.0314    8.4177 H       1  UNL1        0.0000
@<TRIPOS>BOND
     1    13    12    1
     2    14    12    1
     3     6     4    1
     4    12    15    1
     5    12     1    1
     6     5     4    1
     7     4     7    1
     8     4     1    1
     9     1     3    1
    10     1     8    1
    11     3     2    3
    12     9     8    1
    13     8    11    1
    14     8    10    1
