@<TRIPOS>MOLECULE
1
 11 11 0 0 0
SMALL
GASTEIGER

@<TRIPOS>ATOM
      1 C           8.5159    4.9381    6.1004 C.ar    1  UNL1        0.0641
      2 C           9.4678    5.5342    6.9198 C.ar    1  UNL1        0.1720
      3 F           9.1000    5.7938    8.1950 F       1  UNL1       -0.2016
      4 C          10.7482    5.8884    6.5070 C.ar    1  UNL1        0.1970
      5 F          11.6114    6.4668    7.3498 F       1  UNL1       -0.1993
      6 C          11.1394    5.6239    5.1957 C.ar    1  UNL1        0.1991
      7 F          12.3709    5.9351    4.7829 F       1  UNL1       -0.1993
      8 C          10.2278    5.0436    4.3160 C.ar    1  UNL1        0.1970
      9 F          10.5701    4.7815    3.0472 F       1  UNL1       -0.1993
     10 C           8.9647    4.7498    4.8025 C.ar    1  UNL1        0.1720
     11 F           8.0013    4.2321    3.9441 F       1  UNL1       -0.2016
@<TRIPOS>BOND
     1     9     8    1
     2    11    10    1
     3     8    10   ar
     4     8     6   ar
     5     7     6    1
     6    10     1   ar
     7     6     4   ar
     8     1     2   ar
     9     4     2   ar
    10     4     5    1
    11     2     3    1
