@<TRIPOS>MOLECULE
1
 4 3 0 0 0
SMALL
GASTEIGER

@<TRIPOS>ATOM
      1 C          18.5758   11.7732   11.3334 C.3     1  UNL1       -0.0681
      2 H          17.8981   11.0859   10.8103 H       1  UNL1        0.0227
      3 H          19.5829   11.3384   11.2770 H       1  UNL1        0.0227
      4 H          18.5960   12.7065   10.7520 H       1  UNL1        0.0227
@<TRIPOS>BOND
     1     4     1    1
     2     2     1    1
     3     3     1    1
