@<TRIPOS>MOLECULE
1
 27 27 0 0 0
SMALL
GASTEIGER

@<TRIPOS>ATOM
      1 C           3.0634    3.9758   -0.2818 C.1     1  UNL1        0.0000
      2 C           2.0977    3.9481   -1.0182 C.1     1  UNL1        0.0000
      3 C           0.9269    3.8722   -1.8057 C.ar    1  UNL1        0.0000
      4 C           0.4420    4.9920   -2.4893 C.ar    1  UNL1        0.0000
      5 C          -0.7077    4.9090   -3.2426 C.ar    1  UNL1        0.0000
      6 C          -1.4061    3.7018   -3.3335 C.ar    1  UNL1        0.0000
      7 C          -2.5834    3.6116   -4.1078 C.1     1  UNL1        0.0000
      8 C          -3.5918    3.5289   -4.7730 C.1     1  UNL1        0.0000
      9 C          -0.9254    2.5810   -2.6498 C.ar    1  UNL1        0.0000
     10 C           0.2238    2.6653   -1.8972 C.ar    1  UNL1        0.0000
     11 SI         -5.1320    3.3891   -5.7905 Si      1  UNL1        0.0000
     12 C          -6.6456    3.4348   -4.6296 C.3     1  UNL1        0.0000
     13 C          -5.0904    1.7368   -6.7429 C.3     1  UNL1        0.0000
     14 C          -5.1981    4.8517   -7.0129 C.3     1  UNL1        0.0000
     15 H           0.9799    5.9279   -2.4211 H       1  UNL1        0.0000
     16 H          -1.0812    5.7753   -3.7709 H       1  UNL1        0.0000
     17 H          -1.4670    1.6479   -2.7206 H       1  UNL1        0.0000
     18 H           0.5963    1.7990   -1.3672 H       1  UNL1        0.0000
     19 H          -7.5759    3.3482   -5.1841 H       1  UNL1        0.0000
     20 H          -6.6817    4.3639   -4.0687 H       1  UNL1        0.0000
     21 H          -6.6133    2.6208   -3.9116 H       1  UNL1        0.0000
     22 H          -5.9762    1.6088   -7.3590 H       1  UNL1        0.0000
     23 H          -5.0388    0.8930   -6.0613 H       1  UNL1        0.0000
     24 H          -4.2244    1.6827   -7.3958 H       1  UNL1        0.0000
     25 H          -6.0894    4.8134   -7.6330 H       1  UNL1        0.0000
     26 H          -4.3366    4.8486   -7.6739 H       1  UNL1        0.0000
     27 H          -5.2035    5.8017   -6.4870 H       1  UNL1        0.0000
@<TRIPOS>BOND
     1    26    14    1
     2    25    14    1
     3    24    13    1
     4    22    13    1
     5    14    27    1
     6    14    11    1
     7    13    23    1
     8    13    11    1
     9    11     8    1
    10    11    12    1
    11    19    12    1
    12     8     7    3
    13    12    20    1
    14    12    21    1
    15     7     6    1
    16    16     5    1
    17     6     5   ar
    18     6     9   ar
    19     5     4   ar
    20    17     9    1
    21     9    10   ar
    22     4    15    1
    23     4     3   ar
    24    10     3   ar
    25    10    18    1
    26     3     2    1
    27     2     1    3
