@<TRIPOS>MOLECULE
1
 4 3 0 0 0
SMALL
GASTEIGER

@<TRIPOS>ATOM
      1 C           2.5549   -1.1500    4.5289 C.3     1  UNL1       -0.0681
      2 H           3.2707   -1.1772    3.6900 H       1  UNL1        0.0227
      3 H           2.1212   -2.1586    4.5992 H       1  UNL1        0.0227
      4 H           3.1612   -1.0066    5.4395 H       1  UNL1        0.0227
@<TRIPOS>BOND
     1     2     1    1
     2     1     3    1
     3     1     4    1
