@<TRIPOS>MOLECULE
1
 4 3 0 0 0
SMALL
GASTEIGER

@<TRIPOS>ATOM
      1 C           1.2194    0.8729    1.9554 C.3     1  UNL1       -0.0681
      2 H           1.4792   -0.0515    1.4180 H       1  UNL1        0.0227
      3 H           2.0356    1.5823    1.7470 H       1  UNL1        0.0227
      4 H           0.3203    1.2811    1.4710 H       1  UNL1        0.0227
@<TRIPOS>BOND
     1     2     1    1
     2     4     1    1
     3     3     1    1
