@<TRIPOS>MOLECULE
1
 4 3 0 0 0
SMALL
GASTEIGER

@<TRIPOS>ATOM
      1 C           2.7009    2.0199    4.6335 C.3     1  UNL1       -0.0681
      2 H           3.6672    1.6039    4.3067 H       1  UNL1        0.0227
      3 H           2.8080    2.2500    5.7033 H       1  UNL1        0.0227
      4 H           2.5976    2.9853    4.1156 H       1  UNL1        0.0227
@<TRIPOS>BOND
     1     4     1    1
     2     2     1    1
     3     1     3    1
