@<TRIPOS>MOLECULE
2
 16 15 0 0 0
SMALL
GASTEIGER

@<TRIPOS>ATOM
      1 SI          2.9353    7.7028    4.0161 Si      1  UNL1        0.0000
      2 C           3.9414    7.0322    2.5560 C.3     1  UNL1        0.0000
      3 H           3.3319    6.2975    2.0116 H       1  UNL1        0.0000
      4 H           4.8034    6.4778    2.9371 H       1  UNL1        0.0000
      5 C           1.8642    9.2135    3.4858 C.3     1  UNL1        0.0000
      6 H           2.3291    9.7668    2.6682 H       1  UNL1        0.0000
      7 H           1.7124    9.9076    4.3079 H       1  UNL1        0.0000
      8 H           0.8853    8.8918    3.1426 H       1  UNL1        0.0000
      9 C           1.7152    6.4091    4.7257 C.3     1  UNL1        0.0000
     10 H           1.0374    6.0415    3.9612 H       1  UNL1        0.0000
     11 H           1.1122    6.8294    5.5251 H       1  UNL1        0.0000
     12 H           2.2471    5.5536    5.1296 H       1  UNL1        0.0000
     13 C           4.0195    8.2547    5.4970 C.3     1  UNL1        0.0000
     14 H           4.6948    7.4577    5.7916 H       1  UNL1        0.0000
     15 H           3.4006    8.4937    6.3571 H       1  UNL1        0.0000
     16 H           4.6213    9.1296    5.2746 H       1  UNL1        0.0000
@<TRIPOS>BOND
     1     3     2    1
     2     2     4    1
     3     2     1    1
     4     6     5    1
     5     8     5    1
     6     5     1    1
     7     5     7    1
     8    10     9    1
     9     1     9    1
    10     1    13    1
    11     9    12    1
    12     9    11    1
    13    16    13    1
    14    13    14    1
    15    13    15    1
