@<TRIPOS>MOLECULE
3
 57 63 0 0 0
SMALL
GASTEIGER

@<TRIPOS>ATOM
      1 N           4.2546   11.5649    0.7056 N.pl3   1  UNL1       -0.3018
      2 N           3.1262   10.3366   -0.6646 N.pl3   1  UNL1       -0.3018
      3 C           3.8976   10.2814    0.4563 C.3     1  UNL1        0.1874
      4 C           3.7322   12.3950   -0.2543 C.2     1  UNL1        0.0084
      5 H           3.8817   13.4543   -0.2641 H       1  UNL1        0.0793
      6 C           3.0319   11.6257   -1.1144 C.2     1  UNL1        0.0084
      7 H           2.4862   11.9140   -1.9874 H       1  UNL1        0.0793
      8 C           4.9272   12.0841    1.8917 C.3     1  UNL1        0.0374
      9 C           5.4980   10.9551    2.7459 C.3     1  UNL1       -0.0286
     10 C           6.1472   11.5244    4.0044 C.3     1  UNL1       -0.0386
     11 H           6.5439   10.6998    4.6061 H       1  UNL1        0.0302
     12 C           5.1174   12.3039    4.8190 C.3     1  UNL1       -0.0472
     13 H           4.3035   11.6416    5.1213 H       1  UNL1        0.0271
     14 H           5.5800   12.7031    5.7243 H       1  UNL1        0.0271
     15 C           4.5679   13.4453    3.9671 C.3     1  UNL1       -0.0386
     16 H           3.8269   14.0113    4.5429 H       1  UNL1        0.0302
     17 C           3.8989   12.8696    2.7209 C.3     1  UNL1       -0.0286
     18 H           3.4732   13.6783    2.1221 H       1  UNL1        0.0289
     19 H           3.0845   12.2011    3.0089 H       1  UNL1        0.0289
     20 C           5.7088   14.3740    3.5530 C.3     1  UNL1       -0.0472
     21 H           5.3183   15.2014    2.9554 H       1  UNL1        0.0271
     22 H           6.1814   14.7988    4.4411 H       1  UNL1        0.0271
     23 C           6.7388   13.5851    2.7445 C.3     1  UNL1       -0.0386
     24 H           7.5556   14.2512    2.4441 H       1  UNL1        0.0302
     25 C           7.2941   12.4477    3.5979 C.3     1  UNL1       -0.0472
     26 H           8.0377   11.8853    3.0290 H       1  UNL1        0.0271
     27 H           7.7832   12.8540    4.4859 H       1  UNL1        0.0271
     28 C           6.0777   13.0153    1.4891 C.3     1  UNL1       -0.0286
     29 H           5.7105   13.8394    0.8747 H       1  UNL1        0.0289
     30 H           6.8060   12.4551    0.8997 H       1  UNL1        0.0289
     31 C           2.4717    9.1687   -1.2482 C.3     1  UNL1        0.0374
     32 C           1.8416    8.3535   -0.1152 C.3     1  UNL1       -0.0286
     33 C           1.1866    7.0961   -0.6728 C.3     1  UNL1       -0.0386
     34 H           0.7501    6.5224    0.1516 H       1  UNL1        0.0302
     35 C           0.0871    7.4990   -1.6553 C.3     1  UNL1       -0.0472
     36 H          -0.4011    6.6091   -2.0580 H       1  UNL1        0.0271
     37 H          -0.6728    8.0941   -1.1431 H       1  UNL1        0.0271
     38 C           0.7054    8.3084   -2.7933 C.3     1  UNL1       -0.0386
     39 H          -0.0796    8.6077   -3.4976 H       1  UNL1        0.0302
     40 C           1.3765    9.5688   -2.2407 C.3     1  UNL1       -0.0286
     41 H           0.6336   10.1992   -1.7452 H       1  UNL1        0.0289
     42 H           1.8055   10.1288   -3.0749 H       1  UNL1        0.0289
     43 C           1.7430    7.4534   -3.5201 C.3     1  UNL1       -0.0472
     44 H           2.1736    8.0147   -4.3529 H       1  UNL1        0.0271
     45 H           1.2652    6.5616   -3.9308 H       1  UNL1        0.0271
     46 C           2.8407    7.0525   -2.5358 C.3     1  UNL1       -0.0386
     47 H           3.5967    6.4468   -3.0476 H       1  UNL1        0.0302
     48 C           2.2363    6.2480   -1.3875 C.3     1  UNL1       -0.0472
     49 H           3.0246    5.9669   -0.6874 H       1  UNL1        0.0271
     50 H           1.7806    5.3334   -1.7727 H       1  UNL1        0.0271
     51 C           3.5067    8.3062   -1.9765 C.3     1  UNL1       -0.0286
     52 H           6.2522   10.4191    2.1685 H       1  UNL1        0.0289
     53 H           4.7020   10.2482    3.0114 H       1  UNL1        0.0289
     54 H           4.2839    8.0200   -1.2644 H       1  UNL1        0.0289
     55 H           3.9658    8.8806   -2.7861 H       1  UNL1        0.0289
     56 H           2.6394    8.0714    0.6089 H       1  UNL1        0.0289
     57 H           1.0999    8.9647    0.4043 H       1  UNL1        0.0289
@<TRIPOS>BOND
     1    44    43    1
     2    45    43    1
     3    43    38    1
     4    43    46    1
     5    39    38    1
     6    42    40    1
     7    47    46    1
     8    38    40    1
     9    38    35    1
    10    55    51    1
    11    46    51    1
    12    46    48    1
    13    40    41    1
    14    40    31    1
    15    36    35    1
    16     7     6    1
    17    51    54    1
    18    51    31    1
    19    50    48    1
    20    35    37    1
    21    35    33    1
    22    48    49    1
    23    48    33    1
    24    31     2    1
    25    31    32    1
    26     6     2    1
    27     6     4    2
    28    33    32    1
    29    33    34    1
    30     2     3    1
    31     5     4    1
    32     4     1    1
    33    32    57    1
    34    32    56    1
    35     3     1    1
    36     1     8    1
    37    29    28    1
    38    30    28    1
    39    28     8    1
    40    28    23    1
    41     8    17    1
    42     8     9    1
    43    18    17    1
    44    52     9    1
    45    24    23    1
    46    17    19    1
    47    17    15    1
    48    23    20    1
    49    23    25    1
    50     9    53    1
    51     9    10    1
    52    21    20    1
    53    26    25    1
    54    20    15    1
    55    20    22    1
    56    25    10    1
    57    25    27    1
    58    15    16    1
    59    15    12    1
    60    10    11    1
    61    10    12    1
    62    12    13    1
    63    12    14    1
