@<TRIPOS>MOLECULE
3
 57 63 0 0 0
SMALL
GASTEIGER

@<TRIPOS>ATOM
      1 N           3.5788   15.3139    4.6423 N.pl3   1  UNL1       -0.3018
      2 N           5.3206   16.4323    3.9944 N.pl3   1  UNL1       -0.3018
      3 C           4.7549   15.1914    3.9769 C.3     1  UNL1        0.1874
      4 C           3.4280   16.6056    5.0794 C.2     1  UNL1        0.0084
      5 H           2.5885   16.9474    5.6464 H       1  UNL1        0.0793
      6 C           4.5054   17.3018    4.6707 C.2     1  UNL1        0.0084
      7 H           4.7268   18.3343    4.8295 H       1  UNL1        0.0793
      8 C           6.5393   16.8579    3.2943 C.3     1  UNL1        0.0374
      9 C           7.0543   18.1946    3.8442 C.3     1  UNL1       -0.0286
     10 H           6.3123   18.9819    3.7003 H       1  UNL1        0.0289
     11 H           7.2622   18.1010    4.9125 H       1  UNL1        0.0289
     12 C           8.3222   18.6124    3.0949 C.3     1  UNL1       -0.0386
     13 H           8.6762   19.5637    3.5088 H       1  UNL1        0.0302
     14 C           9.4087   17.5525    3.2519 C.3     1  UNL1       -0.0472
     15 H           9.6659   17.4341    4.3069 H       1  UNL1        0.0271
     16 H          10.3101   17.8639    2.7201 H       1  UNL1        0.0271
     17 C           8.8916   16.2308    2.6876 C.3     1  UNL1       -0.0386
     18 H           9.6577   15.4568    2.8022 H       1  UNL1        0.0302
     19 C           7.6438   15.8150    3.4595 C.3     1  UNL1       -0.0286
     20 H           7.2711   14.8481    3.0912 H       1  UNL1        0.0289
     21 H           7.8791   15.7083    4.5197 H       1  UNL1        0.0289
     22 C           6.2217   17.0378    1.8037 C.3     1  UNL1       -0.0286
     23 H           5.4397   17.7933    1.6862 H       1  UNL1        0.0289
     24 H           5.8534   16.0938    1.4000 H       1  UNL1        0.0289
     25 C           7.4798   17.4685    1.0512 C.3     1  UNL1       -0.0386
     26 H           7.2359   17.5905   -0.0098 H       1  UNL1        0.0302
     27 C           7.9924   18.7929    1.6140 C.3     1  UNL1       -0.0472
     28 H           7.2351   19.5710    1.4913 H       1  UNL1        0.0271
     29 H           8.8852   19.1080    1.0702 H       1  UNL1        0.0271
     30 C           8.5578   16.3986    1.2071 C.3     1  UNL1       -0.0472
     31 H           8.2051   15.4527    0.7944 H       1  UNL1        0.0271
     32 H           9.4538   16.6906    0.6551 H       1  UNL1        0.0271
     33 C           2.5276   14.3308    4.9296 C.3     1  UNL1        0.0374
     34 C           2.4395   14.1334    6.4500 C.3     1  UNL1       -0.0286
     35 H           3.3879   13.7322    6.8125 H       1  UNL1        0.0289
     36 H           2.2665   15.0884    6.9500 H       1  UNL1        0.0289
     37 C           1.3021   13.1686    6.7835 C.3     1  UNL1       -0.0386
     38 H           1.2443   13.0475    7.8712 H       1  UNL1        0.0302
     39 C           1.5740   11.8161    6.1311 C.3     1  UNL1       -0.0472
     40 H           2.5125   11.4064    6.5086 H       1  UNL1        0.0271
     41 H           0.7752   11.1142    6.3805 H       1  UNL1        0.0271
     42 C           1.6570   12.0012    4.6180 C.3     1  UNL1       -0.0386
     43 H           1.8714   11.0378    4.1436 H       1  UNL1        0.0302
     44 C           2.7821   12.9763    4.2735 C.3     1  UNL1       -0.0286
     45 H           3.7323   12.5713    4.6166 H       1  UNL1        0.0289
     46 H           2.8206   13.1016    3.1934 H       1  UNL1        0.0289
     47 C           0.3312   12.5451    4.0917 C.3     1  UNL1       -0.0472
     48 H           0.3805   12.6625    3.0068 H       1  UNL1        0.0271
     49 H          -0.4799   11.8505    4.3205 H       1  UNL1        0.0271
     50 C           0.0611   13.8968    4.7461 C.3     1  UNL1       -0.0386
     51 H          -0.8853   14.3035    4.3717 H       1  UNL1        0.0302
     52 C          -0.0206   13.7296    6.2630 C.3     1  UNL1       -0.0472
     53 H          -0.2296   14.6932    6.7343 H       1  UNL1        0.0271
     54 H          -0.8366   13.0504    6.5184 H       1  UNL1        0.0271
     55 C           1.1879   14.8697    4.4013 C.3     1  UNL1       -0.0286
     56 H           0.9582   15.8421    4.8390 H       1  UNL1        0.0289
     57 H           1.2556   14.9964    3.3191 H       1  UNL1        0.0289
@<TRIPOS>BOND
     1    26    25    1
     2    32    30    1
     3    31    30    1
     4    25    30    1
     5    25    27    1
     6    25    22    1
     7    29    27    1
     8    30    17    1
     9    24    22    1
    10    28    27    1
    11    27    12    1
    12    23    22    1
    13    22     8    1
    14    17    18    1
    15    17    14    1
    16    17    19    1
    17    16    14    1
    18    48    47    1
    19    20    19    1
    20    12    14    1
    21    12    13    1
    22    12     9    1
    23    46    44    1
    24    14    15    1
    25     8    19    1
    26     8     9    1
    27     8     2    1
    28    57    55    1
    29    19    21    1
    30    10     9    1
    31     9    11    1
    32     3     2    1
    33     3     1    1
    34     2     6    1
    35    47    49    1
    36    47    42    1
    37    47    50    1
    38    43    42    1
    39    44    45    1
    40    44    42    1
    41    44    33    1
    42    51    50    1
    43    55    50    1
    44    55    56    1
    45    55    33    1
    46    42    39    1
    47     1    33    1
    48     1     4    1
    49     6     7    1
    50     6     4    2
    51    50    52    1
    52    33    34    1
    53     4     5    1
    54    39    41    1
    55    39    40    1
    56    39    37    1
    57    52    54    1
    58    52    53    1
    59    52    37    1
    60    34    37    1
    61    34    35    1
    62    34    36    1
    63    37    38    1
