@<TRIPOS>MOLECULE
2
 16 15 0 0 0
SMALL
GASTEIGER

@<TRIPOS>ATOM
      1 SI          6.4276   11.2374    4.7840 Si      1  UNL1        0.0000
      2 C           6.1522   13.1071    5.0180 C.3     1  UNL1        0.0000
      3 H           7.1008   13.6033    5.2462 H       1  UNL1        0.0000
      4 H           5.5183   13.2832    5.8884 H       1  UNL1        0.0000
      5 C           5.5172   10.2399    6.1422 C.3     1  UNL1        0.0000
      6 H           5.7124   10.6458    7.1302 H       1  UNL1        0.0000
      7 H           5.8389    9.2030    6.1444 H       1  UNL1        0.0000
      8 H           4.4425   10.2469    5.9879 H       1  UNL1        0.0000
      9 C           8.2798   10.7682    4.9181 C.3     1  UNL1        0.0000
     10 H           8.8971   11.3389    4.2314 H       1  UNL1        0.0000
     11 H           8.4323    9.7160    4.6959 H       1  UNL1        0.0000
     12 H           8.6546   10.9508    5.9205 H       1  UNL1        0.0000
     13 C           5.7825   10.5513    3.1075 C.3     1  UNL1        0.0000
     14 H           4.9187   11.1057    2.7439 H       1  UNL1        0.0000
     15 H           5.4748    9.5145    3.2155 H       1  UNL1        0.0000
     16 H           6.5465   10.5821    2.3358 H       1  UNL1        0.0000
@<TRIPOS>BOND
     1    16    13    1
     2    14    13    1
     3    13    15    1
     4    13     1    1
     5    10     9    1
     6    11     9    1
     7     1     9    1
     8     1     2    1
     9     1     5    1
    10     9    12    1
    11     2     3    1
    12     2     4    1
    13     8     5    1
    14     5     7    1
    15     5     6    1
