@<TRIPOS>MOLECULE
2
 16 15 0 0 0
SMALL
GASTEIGER

@<TRIPOS>ATOM
      1 SI          6.6532    4.7387    0.9990 Si      1  UNL1        0.0000
      2 C           6.0481    3.0707    0.3642 C.3     1  UNL1        0.0000
      3 H           6.3940    2.3030    1.0819 H       1  UNL1        0.0000
      4 H           6.5923    2.8476   -0.5691 H       1  UNL1        0.0000
      5 C           8.5575    4.9526    1.1591 C.3     1  UNL1        0.0000
      6 H           8.8211    5.9367    1.5350 H       1  UNL1        0.0000
      7 H           9.0525    4.8269    0.2003 H       1  UNL1        0.0000
      8 H           8.9787    4.2196    1.8406 H       1  UNL1        0.0000
      9 C           5.9016    5.0706    2.7295 C.3     1  UNL1        0.0000
     10 H           5.9438    6.1216    2.9970 H       1  UNL1        0.0000
     11 H           6.4300    4.5162    3.4985 H       1  UNL1        0.0000
     12 H           4.8586    4.7579    2.7554 H       1  UNL1        0.0000
     13 C           6.0648    6.1261   -0.1939 C.3     1  UNL1        0.0000
     14 H           6.2161    7.1112    0.2355 H       1  UNL1        0.0000
     15 H           5.0049    6.0165   -0.4128 H       1  UNL1        0.0000
     16 H           6.6071    6.0974   -1.1345 H       1  UNL1        0.0000
@<TRIPOS>BOND
     1    16    13    1
     2     4     2    1
     3    15    13    1
     4    13    14    1
     5    13     1    1
     6     7     5    1
     7     2     1    1
     8     2     3    1
     9     1     5    1
    10     1     9    1
    11     5     6    1
    12     5     8    1
    13     9    12    1
    14     9    10    1
    15     9    11    1
