@<TRIPOS>MOLECULE
2
 16 15 0 0 0
SMALL
GASTEIGER

@<TRIPOS>ATOM
      1 SI          0.4263    4.1926    0.9284 Si      1  UNL1        0.0000
      2 C           2.2740    4.5066    0.7187 C.3     1  UNL1        0.0000
      3 H           2.6390    4.8628    1.7000 H       1  UNL1        0.0000
      4 H           2.3964    5.3789    0.0566 H       1  UNL1        0.0000
      5 C          -0.5637    4.6908   -0.6468 C.3     1  UNL1        0.0000
      6 H          -1.6311    4.6641   -0.4509 H       1  UNL1        0.0000
      7 H          -0.3755    4.0306   -1.4883 H       1  UNL1        0.0000
      8 H          -0.3192    5.7014   -0.9602 H       1  UNL1        0.0000
      9 C           0.0568    2.3325    1.2620 C.3     1  UNL1        0.0000
     10 H          -0.8846    2.0158    0.8214 H       1  UNL1        0.0000
     11 H          -0.0018    2.1341    2.3275 H       1  UNL1        0.0000
     12 H           0.8452    1.6938    0.8622 H       1  UNL1        0.0000
     13 C          -0.3926    5.1624    2.3696 C.3     1  UNL1        0.0000
     14 H          -1.4385    4.8967    2.4942 H       1  UNL1        0.0000
     15 H          -0.3447    6.2346    2.2029 H       1  UNL1        0.0000
     16 H           0.1115    4.9560    3.3094 H       1  UNL1        0.0000
@<TRIPOS>BOND
     1     7     5    1
     2     8     5    1
     3     5     6    1
     4     5     1    1
     5     4     2    1
     6     2     1    1
     7     2     3    1
     8    10     9    1
     9    12     9    1
    10     1     9    1
    11     1    13    1
    12     9    11    1
    13    15    13    1
    14    13    14    1
    15    13    16    1
