@<TRIPOS>MOLECULE
2
 16 15 0 0 0
SMALL
GASTEIGER

@<TRIPOS>ATOM
      1 SI          3.9813   17.1204    6.6305 Si      1  UNL1        0.0000
      2 C           2.1907   17.2322    6.0346 C.3     1  UNL1        0.0000
      3 H           1.9695   18.2824    5.7832 H       1  UNL1        0.0000
      4 H           1.5585   17.0176    6.9140 H       1  UNL1        0.0000
      5 C           4.4129   18.1927    8.1665 C.3     1  UNL1        0.0000
      6 H           5.4392   18.0390    8.4862 H       1  UNL1        0.0000
      7 H           3.7703   17.9533    9.0085 H       1  UNL1        0.0000
      8 H           4.2925   19.2512    7.9560 H       1  UNL1        0.0000
      9 C           5.1908   17.6605    5.2408 C.3     1  UNL1        0.0000
     10 H           6.2179   17.6656    5.5925 H       1  UNL1        0.0000
     11 H           4.9651   18.6628    4.8874 H       1  UNL1        0.0000
     12 H           5.1407   16.9893    4.3880 H       1  UNL1        0.0000
     13 C           4.2843   15.2855    7.0972 C.3     1  UNL1        0.0000
     14 H           5.3304   15.0773    7.2992 H       1  UNL1        0.0000
     15 H           3.9607   14.6380    6.2822 H       1  UNL1        0.0000
     16 H           3.7215   15.0084    7.9847 H       1  UNL1        0.0000
@<TRIPOS>BOND
     1    12     9    1
     2    11     9    1
     3     9    10    1
     4     9     1    1
     5     3     2    1
     6     2     1    1
     7     2     4    1
     8    15    13    1
     9     1    13    1
    10     1     5    1
    11    13    14    1
    12    13    16    1
    13     8     5    1
    14     5     6    1
    15     5     7    1
