@<TRIPOS>MOLECULE
2
 16 15 0 0 0
SMALL
GASTEIGER

@<TRIPOS>ATOM
      1 SI         -0.9897   14.9464    2.1599 Si      1  UNL1        0.0000
      2 C          -0.2970   16.3242    3.2511 C.3     1  UNL1        0.0000
      3 H          -1.0906   16.6772    3.9276 H       1  UNL1        0.0000
      4 H          -0.0890   17.1832    2.5918 H       1  UNL1        0.0000
      5 C           0.4825   14.2872    1.1207 C.3     1  UNL1        0.0000
      6 H           0.2221   13.4040    0.5455 H       1  UNL1        0.0000
      7 H           1.3129   14.0296    1.7793 H       1  UNL1        0.0000
      8 H           0.8358   15.0383    0.4186 H       1  UNL1        0.0000
      9 C          -1.7144   13.5223    3.2250 C.3     1  UNL1        0.0000
     10 H          -2.0518   12.6988    2.6031 H       1  UNL1        0.0000
     11 H          -2.5687   13.8568    3.8064 H       1  UNL1        0.0000
     12 H          -0.9756   13.1283    3.9173 H       1  UNL1        0.0000
     13 C          -2.3824   15.4628    0.9393 C.3     1  UNL1        0.0000
     14 H          -2.7049   14.6290    0.3229 H       1  UNL1        0.0000
     15 H          -2.0493   16.2517    0.2714 H       1  UNL1        0.0000
     16 H          -3.2551   15.8325    1.4692 H       1  UNL1        0.0000
@<TRIPOS>BOND
     1    15    13    1
     2    14    13    1
     3     8     5    1
     4     6     5    1
     5    13    16    1
     6    13     1    1
     7     5     7    1
     8     5     1    1
     9     1     9    1
    10     1     2    1
    11     4     2    1
    12    10     9    1
    13     9    11    1
    14     9    12    1
    15     2     3    1
