@<TRIPOS>MOLECULE
2
 16 15 0 0 0
SMALL
GASTEIGER

@<TRIPOS>ATOM
      1 SI         -4.9816   -0.2044   17.5395 Si      1  UNL1        0.0000
      2 C          -4.4787   -0.0326   15.7365 C.3     1  UNL1        0.0000
      3 H          -4.5412   -1.0115   15.2453 H       1  UNL1        0.0000
      4 H          -3.4267    0.2663   15.6788 H       1  UNL1        0.0000
      5 C          -5.0115    1.5317   18.3557 C.3     1  UNL1        0.0000
      6 H          -5.5783    1.5323   19.2821 H       1  UNL1        0.0000
      7 H          -5.4560    2.2649   17.6838 H       1  UNL1        0.0000
      8 H          -4.0082    1.8702   18.5942 H       1  UNL1        0.0000
      9 C          -6.7417   -0.9567   17.6257 C.3     1  UNL1        0.0000
     10 H          -7.1272   -0.9715   18.6401 H       1  UNL1        0.0000
     11 H          -6.7466   -1.9785   17.2609 H       1  UNL1        0.0000
     12 H          -7.4282   -0.3825   17.0108 H       1  UNL1        0.0000
     13 C          -3.8478   -1.3068   18.6298 C.3     1  UNL1        0.0000
     14 H          -4.1902   -1.3465   19.6594 H       1  UNL1        0.0000
     15 H          -2.8290   -0.9317   18.6389 H       1  UNL1        0.0000
     16 H          -3.8159   -2.3254   18.2562 H       1  UNL1        0.0000
@<TRIPOS>BOND
     1     3     2    1
     2     4     2    1
     3     2     1    1
     4    12     9    1
     5    11     9    1
     6     1     9    1
     7     1     5    1
     8     1    13    1
     9     9    10    1
    10     7     5    1
    11    16    13    1
    12     5     8    1
    13     5     6    1
    14    13    15    1
    15    13    14    1
