@<TRIPOS>MOLECULE
1
 14 14 0 0 0
SMALL
GASTEIGER

@<TRIPOS>ATOM
      1 C           9.9209    5.2438    3.8746 C.3     1  UNL1       -0.0237
      2 H           8.8395    5.0610    3.8738 H       1  UNL1        0.0316
      3 H          10.1844    5.7732    4.7989 H       1  UNL1        0.0316
      4 C          10.2573    6.0987    2.7244 C.ar    1  UNL1       -0.0470
      5 C          11.3635    6.9591    2.7529 C.ar    1  UNL1       -0.0586
      6 H          11.9941    6.9746    3.6324 H       1  UNL1        0.0620
      7 C          11.6518    7.7889    1.6880 C.ar    1  UNL1       -0.0615
      8 H          12.5085    8.4469    1.7378 H       1  UNL1        0.0618
      9 C          10.8443    7.7934    0.5600 C.ar    1  UNL1       -0.0617
     10 H          11.0690    8.4465   -0.2703 H       1  UNL1        0.0618
     11 C           9.7365    6.9599    0.5179 C.ar    1  UNL1       -0.0615
     12 H           9.0923    6.9640   -0.3501 H       1  UNL1        0.0618
     13 C           9.4450    6.1308    1.5817 C.ar    1  UNL1       -0.0586
     14 H           8.5680    5.4966    1.5415 H       1  UNL1        0.0620
@<TRIPOS>BOND
     1    12    11    1
     2    10     9    1
     3    11     9   ar
     4    11    13   ar
     5     9     7   ar
     6    14    13    1
     7    13     4   ar
     8     7     8    1
     9     7     5   ar
    10     4     5   ar
    11     4     1    1
    12     5     6    1
    13     2     1    1
    14     1     3    1
