@<TRIPOS>MOLECULE
2
 16 15 0 0 0
SMALL
GASTEIGER

@<TRIPOS>ATOM
      1 SI         -6.7029   -0.2044   11.4696 Si      1  UNL1        0.0000
      2 C          -7.2061   -0.0332   13.2726 C.3     1  UNL1        0.0000
      3 H          -7.1438   -1.0119   13.7642 H       1  UNL1        0.0000
      4 H          -8.2579    0.2665   13.3307 H       1  UNL1        0.0000
      5 C          -6.6730    1.5317   10.6534 C.3     1  UNL1        0.0000
      6 H          -6.1060    1.5323    9.7271 H       1  UNL1        0.0000
      7 H          -6.2288    2.2648   11.3256 H       1  UNL1        0.0000
      8 H          -7.6763    1.8701   10.4148 H       1  UNL1        0.0000
      9 C          -4.9429   -0.9568   11.3840 C.3     1  UNL1        0.0000
     10 H          -4.5574   -0.9722   10.3694 H       1  UNL1        0.0000
     11 H          -4.9378   -1.9785   11.7495 H       1  UNL1        0.0000
     12 H          -4.2564   -0.3821   11.9985 H       1  UNL1        0.0000
     13 C          -7.8365   -1.3071   10.3793 C.3     1  UNL1        0.0000
     14 H          -7.4937   -1.3470    9.3498 H       1  UNL1        0.0000
     15 H          -8.8552   -0.9319   10.3697 H       1  UNL1        0.0000
     16 H          -7.8686   -2.3257   10.7530 H       1  UNL1        0.0000
@<TRIPOS>BOND
     1    14    13    1
     2     6     5    1
     3    10     9    1
     4    15    13    1
     5    13    16    1
     6    13     1    1
     7     8     5    1
     8     5     7    1
     9     5     1    1
    10     9     1    1
    11     9    11    1
    12     9    12    1
    13     1     2    1
    14     2     4    1
    15     2     3    1
