@<TRIPOS>MOLECULE
2
 16 15 0 0 0
SMALL
GASTEIGER

@<TRIPOS>ATOM
      1 SI          2.2990    8.6440   12.6951 Si      1  UNL1        0.0000
      2 C           4.1458    8.2701   12.7068 C.3     1  UNL1        0.0000
      3 H           4.6601    9.2199   12.8771 H       1  UNL1        0.0000
      4 H           4.4214    7.9385   11.7056 H       1  UNL1        0.0000
      5 C           1.6414    9.5163   14.2655 C.3     1  UNL1        0.0000
      6 H           1.2503    8.8018   14.9811 H       1  UNL1        0.0000
      7 H           0.8419   10.2107   14.0235 H       1  UNL1        0.0000
      8 H           2.4258   10.0758   14.7637 H       1  UNL1        0.0000
      9 C           1.1395    7.1773   12.2873 C.3     1  UNL1        0.0000
     10 H           0.9608    7.0959   11.2195 H       1  UNL1        0.0000
     11 H           0.1739    7.2984   12.7696 H       1  UNL1        0.0000
     12 H           1.5574    6.2389   12.6311 H       1  UNL1        0.0000
     13 C           2.0368    9.9080   11.2608 C.3     1  UNL1        0.0000
     14 H           2.5096   10.8602   11.4805 H       1  UNL1        0.0000
     15 H           0.9824   10.1003   11.0867 H       1  UNL1        0.0000
     16 H           2.4620    9.5407   10.3315 H       1  UNL1        0.0000
@<TRIPOS>BOND
     1    16    13    1
     2    15    13    1
     3    10     9    1
     4    13    14    1
     5    13     1    1
     6     4     2    1
     7     9    12    1
     8     9     1    1
     9     9    11    1
    10     1     2    1
    11     1     5    1
    12     2     3    1
    13     7     5    1
    14     5     8    1
    15     5     6    1
