@<TRIPOS>MOLECULE
1
 14 14 0 0 0
SMALL
GASTEIGER

@<TRIPOS>ATOM
      1 C           2.8363    4.2524    7.3584 C.3     1  UNL1       -0.0237
      2 C           2.3820    5.5460    7.9010 C.ar    1  UNL1       -0.0470
      3 C           2.7177    5.9839    9.1890 C.ar    1  UNL1       -0.0586
      4 C           2.2652    7.2000    9.6681 C.ar    1  UNL1       -0.0615
      5 C           1.4545    8.0076    8.8864 C.ar    1  UNL1       -0.0617
      6 C           1.0917    7.5830    7.6164 C.ar    1  UNL1       -0.0615
      7 C           1.5508    6.3739    7.1304 C.ar    1  UNL1       -0.0586
      8 H           1.9925    3.7480    6.8602 H       1  UNL1        0.0316
      9 H           3.1948    3.6036    8.1639 H       1  UNL1        0.0316
     10 H           3.3268    5.3506    9.8217 H       1  UNL1        0.0620
     11 H           2.5332    7.5151   10.6661 H       1  UNL1        0.0618
     12 H           1.0960    8.9507    9.2677 H       1  UNL1        0.0618
     13 H           0.4433    8.1969    7.0087 H       1  UNL1        0.0618
     14 H           1.2575    6.0270    6.1436 H       1  UNL1        0.0620
@<TRIPOS>BOND
     1    14     7    1
     2     8     1    1
     3    13     6    1
     4     7     6   ar
     5     7     2   ar
     6     1     2    1
     7     1     9    1
     8     6     5   ar
     9     2     3   ar
    10     5    12    1
    11     5     4   ar
    12     3     4   ar
    13     3    10    1
    14     4    11    1
