@<TRIPOS>MOLECULE
2
 16 15 0 0 0
SMALL
GASTEIGER

@<TRIPOS>ATOM
      1 SI          3.2985    1.9789    0.2697 Si      1  UNL1        0.0000
      2 C           3.7125    1.8465    2.1308 C.3     1  UNL1        0.0000
      3 C           2.2565    0.4708   -0.3080 C.3     1  UNL1        0.0000
      4 C           2.4561    3.6428   -0.1487 C.3     1  UNL1        0.0000
      5 C           4.9245    1.8999   -0.7476 C.3     1  UNL1        0.0000
      6 H           4.5052    2.5818    2.3129 H       1  UNL1        0.0000
      7 H           4.1740    0.8623    2.2838 H       1  UNL1        0.0000
      8 H           1.6956    0.7104   -1.2059 H       1  UNL1        0.0000
      9 H           2.9024   -0.3685   -0.5477 H       1  UNL1        0.0000
     10 H           1.5475    0.1336    0.4423 H       1  UNL1        0.0000
     11 H           2.0284    3.6327   -1.1466 H       1  UNL1        0.0000
     12 H           3.1778    4.4526   -0.1120 H       1  UNL1        0.0000
     13 H           1.6662    3.8832    0.5571 H       1  UNL1        0.0000
     14 H           4.7161    1.9269   -1.8123 H       1  UNL1        0.0000
     15 H           5.5771    2.7372   -0.5216 H       1  UNL1        0.0000
     16 H           5.4804    0.9889   -0.5469 H       1  UNL1        0.0000
@<TRIPOS>BOND
     1    14     5    1
     2     8     3    1
     3    11     4    1
     4     5    16    1
     5     5    15    1
     6     5     1    1
     7     9     3    1
     8     3     1    1
     9     3    10    1
    10     4    12    1
    11     4     1    1
    12     4    13    1
    13     1     2    1
    14     2     7    1
    15     2     6    1
