@<TRIPOS>MOLECULE
2
 16 15 0 0 0
SMALL
GASTEIGER

@<TRIPOS>ATOM
      1 SI         -1.2108    3.1855    2.6032 Si      1  UNL1        0.0000
      2 C           0.1787    1.9221    2.2855 C.3     1  UNL1        0.0000
      3 C          -1.0388    4.6735    1.4191 C.3     1  UNL1        0.0000
      4 C          -1.1721    3.8762    4.3865 C.3     1  UNL1        0.0000
      5 C          -2.9218    2.3687    2.3258 C.3     1  UNL1        0.0000
      6 H          -0.2102    0.9019    2.4318 H       1  UNL1        0.0000
      7 H           0.4254    2.0059    1.2207 H       1  UNL1        0.0000
      8 H          -1.8674    5.3643    1.5401 H       1  UNL1        0.0000
      9 H          -0.1247    5.2209    1.6259 H       1  UNL1        0.0000
     10 H          -1.0171    4.3663    0.3780 H       1  UNL1        0.0000
     11 H          -1.8947    4.6791    4.4970 H       1  UNL1        0.0000
     12 H          -0.1928    4.2898    4.6127 H       1  UNL1        0.0000
     13 H          -1.4077    3.1319    5.1411 H       1  UNL1        0.0000
     14 H          -3.7249    3.0730    2.5150 H       1  UNL1        0.0000
     15 H          -3.0720    1.5178    2.9834 H       1  UNL1        0.0000
     16 H          -3.0298    2.0149    1.3056 H       1  UNL1        0.0000
@<TRIPOS>BOND
     1    10     3    1
     2     7     2    1
     3    16     5    1
     4     3     8    1
     5     3     9    1
     6     3     1    1
     7     2     6    1
     8     2     1    1
     9     5    14    1
    10     5     1    1
    11     5    15    1
    12     1     4    1
    13     4    11    1
    14     4    12    1
    15     4    13    1
