@<TRIPOS>MOLECULE
2
 22 22 0 0 0
SMALL
GASTEIGER

@<TRIPOS>ATOM
      1 N           6.9837    7.2850    8.3712 N.pl3   1  UNL1       -0.3358
      2 C           4.9966    9.0603    7.3401 C.3     1  UNL1       -0.0219
      3 H           4.2240    9.5889    6.7678 H       1  UNL1        0.0317
      4 H           5.8413    9.7545    7.4418 H       1  UNL1        0.0317
      5 C           5.4134    7.8586    6.5854 C.ar    1  UNL1       -0.0261
      6 C           4.7999    7.5167    5.3766 C.ar    1  UNL1       -0.0568
      7 H           4.0292    8.1671    4.9836 H       1  UNL1        0.0621
      8 C           5.1514    6.3831    4.6710 C.ar    1  UNL1       -0.0614
      9 H           4.6564    6.1523    3.7389 H       1  UNL1        0.0618
     10 C           6.1462    5.5524    5.1540 C.ar    1  UNL1       -0.0600
     11 H           6.4409    4.6710    4.6048 H       1  UNL1        0.0618
     12 C           6.7664    5.8575    6.3552 C.ar    1  UNL1       -0.0404
     13 H           7.5353    5.1954    6.7240 H       1  UNL1        0.0636
     14 C           6.4086    6.9838    7.0783 C.ar    1  UNL1        0.0324
     15 C           7.4117    6.1044    9.1222 C.3     1  UNL1        0.0004
     16 H           6.6416    5.3366    9.0752 H       1  UNL1        0.0428
     17 H           7.5629    6.3951   10.1634 H       1  UNL1        0.0428
     18 H           8.3552    5.6849    8.7470 H       1  UNL1        0.0428
     19 C           8.1262    8.1863    8.2268 C.3     1  UNL1        0.0004
     20 H           8.9553    7.6986    7.6940 H       1  UNL1        0.0428
     21 H           8.4770    8.4825    9.2152 H       1  UNL1        0.0428
     22 H           7.8419    9.0749    7.6681 H       1  UNL1        0.0428
@<TRIPOS>BOND
     1     9     8    1
     2    11    10    1
     3     8    10   ar
     4     8     6   ar
     5     7     6    1
     6    10    12   ar
     7     6     5   ar
     8    12    13    1
     9    12    14   ar
    10     5    14   ar
    11     5     2    1
    12     3     2    1
    13    14     1    1
    14     2     4    1
    15    22    19    1
    16    20    19    1
    17    19     1    1
    18    19    21    1
    19     1    15    1
    20    18    15    1
    21    16    15    1
    22    15    17    1
