@<TRIPOS>MOLECULE
2
 22 22 0 0 0
SMALL
GASTEIGER

@<TRIPOS>ATOM
      1 N           1.8436    7.6250    8.7295 N.pl3   1  UNL1       -0.3358
      2 C           3.9587    6.0901    9.8951 C.3     1  UNL1       -0.0219
      3 H           3.9743    5.6150    8.9030 H       1  UNL1        0.0317
      4 H           4.6110    5.4943   10.5456 H       1  UNL1        0.0317
      5 C           2.5868    6.0549   10.4502 C.ar    1  UNL1       -0.0261
      6 C           2.3001    5.3191   11.6039 C.ar    1  UNL1       -0.0568
      7 H           3.1019    4.7695   12.0784 H       1  UNL1        0.0621
      8 C           1.0337    5.2807   12.1524 C.ar    1  UNL1       -0.0614
      9 H           0.8484    4.7005   13.0449 H       1  UNL1        0.0618
     10 C           0.0018    5.9792   11.5515 C.ar    1  UNL1       -0.0600
     11 H          -0.9959    5.9475   11.9627 H       1  UNL1        0.0618
     12 C           0.2565    6.7294   10.4149 C.ar    1  UNL1       -0.0404
     13 H          -0.5577    7.2787    9.9663 H       1  UNL1        0.0636
     14 C           1.5275    6.7846    9.8657 C.ar    1  UNL1        0.0324
     15 C           0.9955    8.8090    8.6093 C.3     1  UNL1        0.0004
     16 H          -0.0268    8.5701    8.2863 H       1  UNL1        0.0428
     17 H           1.4298    9.4740    7.8596 H       1  UNL1        0.0428
     18 H           0.9518    9.3320    9.5645 H       1  UNL1        0.0428
     19 C           1.7666    6.8593    7.4832 C.3     1  UNL1        0.0004
     20 H           2.3494    5.9453    7.5648 H       1  UNL1        0.0428
     21 H           2.1680    7.4544    6.6627 H       1  UNL1        0.0428
     22 H           0.7284    6.5855    7.2492 H       1  UNL1        0.0428
@<TRIPOS>BOND
     1    21    19    1
     2    22    19    1
     3    19    20    1
     4    19     1    1
     5    17    15    1
     6    16    15    1
     7    15     1    1
     8    15    18    1
     9     1    14    1
    10     3     2    1
    11    14    12   ar
    12    14     5   ar
    13     2     5    1
    14     2     4    1
    15    13    12    1
    16    12    10   ar
    17     5     6   ar
    18    10    11    1
    19    10     8   ar
    20     6     7    1
    21     6     8   ar
    22     8     9    1
