@<TRIPOS>MOLECULE
1
 33 32 0 0 0
SMALL
GASTEIGER

@<TRIPOS>ATOM
      1 C           9.7277    5.7155    5.7308 C.1     1  UNL1        0.0000
      2 C           9.3270    5.3927    4.6323 C.1     1  UNL1        0.0000
      3 SI          8.6751    4.9504    2.9547 Si      1  UNL1        0.0000
      4 C           7.3930    6.3325    2.5335 C.3     1  UNL1        0.0000
      5 H           7.9049    7.2857    2.7093 H       1  UNL1        0.0000
      6 C           6.9390    6.3248    1.0756 C.3     1  UNL1        0.0000
      7 H           6.2840    7.1733    0.8749 H       1  UNL1        0.0000
      8 H           6.3896    5.4163    0.8426 H       1  UNL1        0.0000
      9 H           7.7911    6.3907    0.4036 H       1  UNL1        0.0000
     10 C           6.1802    6.3020    3.4577 C.3     1  UNL1        0.0000
     11 H           5.5297    7.1575    3.2740 H       1  UNL1        0.0000
     12 H           6.4909    6.3280    4.5001 H       1  UNL1        0.0000
     13 H           5.5960    5.3995    3.2951 H       1  UNL1        0.0000
     14 C          10.1299    5.0318    1.7081 C.3     1  UNL1        0.0000
     15 H           9.7763    4.8013    0.6974 H       1  UNL1        0.0000
     16 C          10.7378    6.4314    1.6859 C.3     1  UNL1        0.0000
     17 H          11.5749    6.4759    0.9899 H       1  UNL1        0.0000
     18 H          11.1030    6.6944    2.6761 H       1  UNL1        0.0000
     19 H          10.0054    7.1752    1.3818 H       1  UNL1        0.0000
     20 C          11.2102    4.0163    2.0669 C.3     1  UNL1        0.0000
     21 H          12.0542    4.0967    1.3826 H       1  UNL1        0.0000
     22 H          10.8278    3.0003    2.0119 H       1  UNL1        0.0000
     23 H          11.5701    4.1932    3.0776 H       1  UNL1        0.0000
     24 C           7.9765    3.1601    3.0734 C.3     1  UNL1        0.0000
     25 H           8.8404    2.4881    3.0606 H       1  UNL1        0.0000
     26 C           7.0805    2.7730    1.8994 C.3     1  UNL1        0.0000
     27 H           6.8142    1.7171    1.9526 H       1  UNL1        0.0000
     28 H           7.5823    2.9474    0.9499 H       1  UNL1        0.0000
     29 H           6.1568    3.3483    1.9141 H       1  UNL1        0.0000
     30 C           7.2530    2.9135    4.3945 C.3     1  UNL1        0.0000
     31 H           6.9390    1.8726    4.4698 H       1  UNL1        0.0000
     32 H           6.3669    3.5387    4.4752 H       1  UNL1        0.0000
     33 H           7.9079    3.1380    5.2326 H       1  UNL1        0.0000
@<TRIPOS>BOND
     1     9     6    1
     2    15    14    1
     3     8     6    1
     4     7     6    1
     5    28    26    1
     6    17    16    1
     7     6     4    1
     8    19    16    1
     9    21    20    1
    10    16    14    1
    11    16    18    1
    12    14    20    1
    13    14     3    1
    14    26    29    1
    15    26    27    1
    16    26    24    1
    17    22    20    1
    18    20    23    1
    19     4     5    1
    20     4     3    1
    21     4    10    1
    22     3    24    1
    23     3     2    1
    24    25    24    1
    25    24    30    1
    26    11    10    1
    27    13    10    1
    28    10    12    1
    29    30    31    1
    30    30    32    1
    31    30    33    1
    32     2     1    3
