@<TRIPOS>MOLECULE
2
 16 15 0 0 0
SMALL
GASTEIGER

@<TRIPOS>ATOM
      1 SI          5.6747    3.4451   15.9115 Si      1  UNL1        0.0000
      2 C           4.5972    1.9439   15.4918 C.3     1  UNL1        0.0000
      3 C           7.0984    3.7657   14.6717 C.3     1  UNL1        0.0000
      4 C           4.5867    5.0317   15.9423 C.3     1  UNL1        0.0000
      5 C           6.4408    3.2611   17.6541 C.3     1  UNL1        0.0000
      6 H           5.1374    1.0393   15.7991 H       1  UNL1        0.0000
      7 H           4.5135    1.8752   14.4003 H       1  UNL1        0.0000
      8 H           7.6520    4.6647   14.9236 H       1  UNL1        0.0000
      9 H           6.7200    3.8871   13.6616 H       1  UNL1        0.0000
     10 H           7.8022    2.9396   14.6598 H       1  UNL1        0.0000
     11 H           5.1220    5.8567   16.4025 H       1  UNL1        0.0000
     12 H           3.6641    4.8807   16.5116 H       1  UNL1        0.0000
     13 H           4.3129    5.3493   14.9407 H       1  UNL1        0.0000
     14 H           7.1773    4.0366   17.8393 H       1  UNL1        0.0000
     15 H           6.9410    2.3047   17.7682 H       1  UNL1        0.0000
     16 H           5.6851    3.3369   18.4298 H       1  UNL1        0.0000
@<TRIPOS>BOND
     1     9     3    1
     2     7     2    1
     3    10     3    1
     4     3     8    1
     5     3     1    1
     6    13     4    1
     7     2     6    1
     8     2     1    1
     9     1     4    1
    10     1     5    1
    11     4    11    1
    12     4    12    1
    13     5    15    1
    14     5    14    1
    15     5    16    1
