@<TRIPOS>MOLECULE
2
 16 15 0 0 0
SMALL
GASTEIGER

@<TRIPOS>ATOM
      1 SI          2.9529    1.9402    5.6276 Si      1  UNL1        0.0000
      2 C           2.4329    1.6523    3.8167 C.3     1  UNL1        0.0000
      3 C           3.6647    3.6875    5.9516 C.3     1  UNL1        0.0000
      4 C           4.3049    0.6734    6.1194 C.3     1  UNL1        0.0000
      5 C           1.4436    1.6935    6.7724 C.3     1  UNL1        0.0000
      6 H           1.6256    0.9136    3.8481 H       1  UNL1        0.0000
      7 H           3.2500    1.1706    3.2670 H       1  UNL1        0.0000
      8 H           3.7565    3.8616    7.0193 H       1  UNL1        0.0000
      9 H           4.6491    3.8315    5.5171 H       1  UNL1        0.0000
     10 H           2.9994    4.4493    5.5547 H       1  UNL1        0.0000
     11 H           4.6038    0.8063    7.1536 H       1  UNL1        0.0000
     12 H           3.9490   -0.3456    6.0104 H       1  UNL1        0.0000
     13 H           5.1955    0.7751    5.5071 H       1  UNL1        0.0000
     14 H           1.7302    1.7544    7.8177 H       1  UNL1        0.0000
     15 H           0.6996    2.4615    6.5885 H       1  UNL1        0.0000
     16 H           0.9734    0.7271    6.6175 H       1  UNL1        0.0000
@<TRIPOS>BOND
     1     7     2    1
     2     2     6    1
     3     2     1    1
     4    13     4    1
     5     9     3    1
     6    10     3    1
     7     1     3    1
     8     1     4    1
     9     1     5    1
    10     3     8    1
    11    12     4    1
    12     4    11    1
    13    15     5    1
    14    16     5    1
    15     5    14    1
