@<TRIPOS>MOLECULE
1
 37 39 0 0 0
SMALL
GASTEIGER

@<TRIPOS>ATOM
      1 C           0.1566    2.1371    1.8243 C.3     1  UNL1       -0.0339
      2 C          -1.1529    2.9520    1.7235 C.3     1  UNL1        0.0455
      3 C          -2.1450    2.3418    0.7333 C.ar    1  UNL1       -0.0325
      4 C          -2.3592    0.9677    0.7295 C.ar    1  UNL1       -0.0574
      5 C          -3.2844    0.3916   -0.1215 C.ar    1  UNL1       -0.0615
      6 C          -4.0256    1.1798   -0.9840 C.ar    1  UNL1       -0.0617
      7 C          -3.8395    2.5503   -0.9748 C.ar    1  UNL1       -0.0615
      8 C          -2.9136    3.1250   -0.1218 C.ar    1  UNL1       -0.0574
      9 C          -1.9253    3.0126    3.0400 C.ar    1  UNL1       -0.0325
     10 C          -3.0937    3.7709    3.0860 C.ar    1  UNL1       -0.0574
     11 C          -3.8548    3.8432    4.2365 C.ar    1  UNL1       -0.0615
     12 C          -3.4667    3.1489    5.3694 C.ar    1  UNL1       -0.0617
     13 C          -2.3157    2.3849    5.3332 C.ar    1  UNL1       -0.0615
     14 C          -1.5514    2.3117    4.1797 C.ar    1  UNL1       -0.0574
     15 C          -0.6880    4.3386    1.2770 C.ar    1  UNL1       -0.0325
     16 C          -0.2913    4.5319   -0.0505 C.ar    1  UNL1       -0.0574
     17 C           0.0519    5.7875   -0.5200 C.ar    1  UNL1       -0.0615
     18 C           0.0194    6.8822    0.3297 C.ar    1  UNL1       -0.0617
     19 C          -0.3436    6.7054    1.6542 C.ar    1  UNL1       -0.0615
     20 C          -0.6893    5.4479    2.1306 C.ar    1  UNL1       -0.0574
     21 H           0.4741    1.9204    0.7844 H       1  UNL1        0.0281
     22 H          -0.0665    1.1562    2.2591 H       1  UNL1        0.0281
     23 H          -1.8056    0.3341    1.4051 H       1  UNL1        0.0621
     24 H          -3.4292   -0.6790   -0.1070 H       1  UNL1        0.0618
     25 H          -4.7471    0.7312   -1.6506 H       1  UNL1        0.0618
     26 H          -4.4206    3.1806   -1.6325 H       1  UNL1        0.0618
     27 H          -2.7934    4.1989   -0.1312 H       1  UNL1        0.0621
     28 H          -3.4091    4.3182    2.2094 H       1  UNL1        0.0621
     29 H          -4.7524    4.4446    4.2478 H       1  UNL1        0.0618
     30 H          -4.0568    3.2060    6.2720 H       1  UNL1        0.0618
     31 H          -1.9999    1.8417    6.2112 H       1  UNL1        0.0618
     32 H          -0.6503    1.7177    4.1977 H       1  UNL1        0.0621
     33 H          -0.3013    3.6938   -0.7357 H       1  UNL1        0.0621
     34 H           0.3323    5.9150   -1.5561 H       1  UNL1        0.0618
     35 H           0.2691    7.8652   -0.0422 H       1  UNL1        0.0618
     36 H          -0.3765    7.5521    2.3241 H       1  UNL1        0.0618
     37 H          -1.0507    5.3546    3.1455 H       1  UNL1        0.0621
@<TRIPOS>BOND
     1    25     6    1
     2    26     7    1
     3    34    17    1
     4     6     7   ar
     5     6     5   ar
     6     7     8   ar
     7    33    16    1
     8    17    16   ar
     9    17    18   ar
    10    27     8    1
    11     8     3   ar
    12     5    24    1
    13     5     4   ar
    14    16    15   ar
    15    35    18    1
    16    18    19   ar
    17     4     3   ar
    18     4    23    1
    19     3     2    1
    20    21     1    1
    21    15     2    1
    22    15    20   ar
    23    19    20   ar
    24    19    36    1
    25     2     1    1
    26     2     9    1
    27     1    22    1
    28    20    37    1
    29    28    10    1
    30     9    10   ar
    31     9    14   ar
    32    10    11   ar
    33    14    32    1
    34    14    13   ar
    35    11    29    1
    36    11    12   ar
    37    13    12   ar
    38    13    31    1
    39    12    30    1
