@<TRIPOS>MOLECULE
2
 16 15 0 0 0
SMALL
GASTEIGER

@<TRIPOS>ATOM
      1 SI          9.2591    3.1770   -1.0923 Si      1  UNL1        0.0000
      2 C           8.5841    3.2395    0.6763 C.3     1  UNL1        0.0000
      3 H           7.8706    2.4175    0.7710 H       1  UNL1        0.0000
      4 H           7.9898    4.1546    0.7886 H       1  UNL1        0.0000
      5 C           7.8463    2.7092   -2.3022 C.3     1  UNL1        0.0000
      6 H           7.4726    1.7102   -2.1013 H       1  UNL1        0.0000
      7 H           8.1875    2.7296   -3.3324 H       1  UNL1        0.0000
      8 H           7.0080    3.3941   -2.2223 H       1  UNL1        0.0000
      9 C           9.9244    4.8834   -1.6570 C.3     1  UNL1        0.0000
     10 H           9.1283    5.6214   -1.6881 H       1  UNL1        0.0000
     11 H          10.3480    4.8221   -2.6548 H       1  UNL1        0.0000
     12 H          10.6973    5.2617   -0.9968 H       1  UNL1        0.0000
     13 C          10.6149    1.8413   -1.2770 C.3     1  UNL1        0.0000
     14 H          11.5365    2.1278   -0.7809 H       1  UNL1        0.0000
     15 H          10.8459    1.6613   -2.3226 H       1  UNL1        0.0000
     16 H          10.2908    0.9004   -0.8431 H       1  UNL1        0.0000
@<TRIPOS>BOND
     1     7     5    1
     2    11     9    1
     3    15    13    1
     4     5     8    1
     5     5     6    1
     6     5     1    1
     7    10     9    1
     8     9     1    1
     9     9    12    1
    10    13     1    1
    11    13    16    1
    12    13    14    1
    13     1     2    1
    14     2     3    1
    15     2     4    1
