@<TRIPOS>MOLECULE
2
 16 15 0 0 0
SMALL
GASTEIGER

@<TRIPOS>ATOM
      1 SI         13.3268    4.5197    2.5632 Si      1  UNL1        0.0000
      2 C          11.6812    4.3801    1.6267 C.3     1  UNL1        0.0000
      3 H          11.9093    3.9588    0.6445 H       1  UNL1        0.0000
      4 H          11.3313    5.3973    1.4363 H       1  UNL1        0.0000
      5 C          14.4240    5.8095    1.6610 C.3     1  UNL1        0.0000
      6 H          14.5748    5.5491    0.6182 H       1  UNL1        0.0000
      7 H          15.4025    5.8822    2.1247 H       1  UNL1        0.0000
      8 H          13.9755    6.7977    1.6891 H       1  UNL1        0.0000
      9 C          13.1084    5.1113    4.3696 C.3     1  UNL1        0.0000
     10 H          12.1298    5.5503    4.5341 H       1  UNL1        0.0000
     11 H          13.8487    5.8633    4.6256 H       1  UNL1        0.0000
     12 H          13.2248    4.2875    5.0662 H       1  UNL1        0.0000
     13 C          14.2826    2.8626    2.5575 C.3     1  UNL1        0.0000
     14 H          13.7759    2.1093    3.1522 H       1  UNL1        0.0000
     15 H          15.2761    2.9916    2.9766 H       1  UNL1        0.0000
     16 H          14.4029    2.4718    1.5514 H       1  UNL1        0.0000
@<TRIPOS>BOND
     1     6     5    1
     2     3     2    1
     3     4     2    1
     4    16    13    1
     5     2     1    1
     6     5     8    1
     7     5     7    1
     8     5     1    1
     9    13     1    1
    10    13    15    1
    11    13    14    1
    12     1     9    1
    13     9    10    1
    14     9    11    1
    15     9    12    1
