@<TRIPOS>MOLECULE
2
 16 15 0 0 0
SMALL
GASTEIGER

@<TRIPOS>ATOM
      1 SI         10.2321   23.1072   18.6045 Si      1  UNL1        0.0000
      2 C          10.8226   21.8179   17.3556 C.3     1  UNL1        0.0000
      3 H          11.2087   20.9576   17.9080 H       1  UNL1        0.0000
      4 H          11.6842   22.2268   16.8226 H       1  UNL1        0.0000
      5 C           9.1126   22.3296   19.9489 C.3     1  UNL1        0.0000
      6 H           8.3180   21.7303   19.5129 H       1  UNL1        0.0000
      7 H           8.6503   23.0913   20.5696 H       1  UNL1        0.0000
      8 H           9.6837   21.6769   20.6020 H       1  UNL1        0.0000
      9 C          11.6904   23.9474   19.5216 C.3     1  UNL1        0.0000
     10 H          12.2996   23.2158   20.0414 H       1  UNL1        0.0000
     11 H          11.3339   24.6605   20.2578 H       1  UNL1        0.0000
     12 H          12.3369   24.4821   18.8334 H       1  UNL1        0.0000
     13 C           9.2631   24.5128   17.7268 C.3     1  UNL1        0.0000
     14 H           9.8364   24.9285   16.9027 H       1  UNL1        0.0000
     15 H           9.0429   25.3278   18.4103 H       1  UNL1        0.0000
     16 H           8.3153   24.1693   17.3206 H       1  UNL1        0.0000
@<TRIPOS>BOND
     1     4     2    1
     2    14    13    1
     3    16    13    1
     4     2     3    1
     5     2     1    1
     6    13    15    1
     7    13     1    1
     8     1     9    1
     9     1     5    1
    10    12     9    1
    11     6     5    1
    12     9    10    1
    13     9    11    1
    14     5     7    1
    15     5     8    1
