@<TRIPOS>MOLECULE
2
 16 15 0 0 0
SMALL
GASTEIGER

@<TRIPOS>ATOM
      1 SI          0.3765   -0.8631    2.8042 Si      1  UNL1        0.0000
      2 C          -0.2545    0.9127    2.6069 C.3     1  UNL1        0.0000
      3 H          -1.2285    0.8392    2.1075 H       1  UNL1        0.0000
      4 H           0.3974    1.4010    1.8838 H       1  UNL1        0.0000
      5 C           1.7124   -1.1238    4.1407 C.3     1  UNL1        0.0000
      6 H           2.4865   -0.3669    4.0896 H       1  UNL1        0.0000
      7 H           2.1899   -2.0937    4.0310 H       1  UNL1        0.0000
      8 H           1.2877   -1.0759    5.1375 H       1  UNL1        0.0000
      9 C          -1.0310   -2.1205    3.1739 C.3     1  UNL1        0.0000
     10 H          -1.5610   -1.8868    4.0911 H       1  UNL1        0.0000
     11 H          -0.6170   -3.1180    3.2857 H       1  UNL1        0.0000
     12 H          -1.7580   -2.1659    2.3678 H       1  UNL1        0.0000
     13 C           1.1100   -1.4515    1.1285 C.3     1  UNL1        0.0000
     14 H           0.3805   -1.3839    0.3270 H       1  UNL1        0.0000
     15 H           1.4342   -2.4856    1.1871 H       1  UNL1        0.0000
     16 H           1.9676   -0.8552    0.8383 H       1  UNL1        0.0000
@<TRIPOS>BOND
     1    14    13    1
     2    16    13    1
     3    13    15    1
     4    13     1    1
     5     4     2    1
     6     3     2    1
     7    12     9    1
     8     2     1    1
     9     1     9    1
    10     1     5    1
    11     9    11    1
    12     9    10    1
    13     7     5    1
    14     6     5    1
    15     5     8    1
