@<TRIPOS>MOLECULE
2
 16 15 0 0 0
SMALL
GASTEIGER

@<TRIPOS>ATOM
      1 SI         -9.6785    5.3816   -3.1960 Si      1  UNL1        0.0000
      2 C          -8.5171    6.8294   -2.7347 C.3     1  UNL1        0.0000
      3 H          -7.9492    6.4686   -1.8689 H       1  UNL1        0.0000
      4 H          -9.1274    7.6589   -2.3736 H       1  UNL1        0.0000
      5 C         -10.0932    4.3784   -1.6183 C.3     1  UNL1        0.0000
      6 H         -10.4648    5.0126   -0.8184 H       1  UNL1        0.0000
      7 H          -9.2122    3.8616   -1.2482 H       1  UNL1        0.0000
      8 H         -10.8515    3.6273   -1.8166 H       1  UNL1        0.0000
      9 C          -8.9591    4.1697   -4.4832 C.3     1  UNL1        0.0000
     10 H          -9.5560    3.2633   -4.5341 H       1  UNL1        0.0000
     11 H          -7.9461    3.8713   -4.2266 H       1  UNL1        0.0000
     12 H          -8.9378    4.5997   -5.4806 H       1  UNL1        0.0000
     13 C         -11.3179    6.0864   -3.9017 C.3     1  UNL1        0.0000
     14 H         -11.8443    6.6777   -3.1592 H       1  UNL1        0.0000
     15 H         -11.9801    5.2796   -4.1989 H       1  UNL1        0.0000
     16 H         -11.1571    6.7157   -4.7714 H       1  UNL1        0.0000
@<TRIPOS>BOND
     1    12     9    1
     2    16    13    1
     3    10     9    1
     4     9    11    1
     5     9     1    1
     6    15    13    1
     7    13     1    1
     8    13    14    1
     9     1     2    1
    10     1     5    1
    11     2     4    1
    12     2     3    1
    13     8     5    1
    14     5     7    1
    15     5     6    1
