@<TRIPOS>MOLECULE
1
 15 14 0 0 0
SMALL
GASTEIGER

@<TRIPOS>ATOM
      1 C          -2.1432   12.6506    1.1826 C.3     1  UNL1        0.0000
      2 H          -2.0892   13.7094    0.8977 H       1  UNL1        0.0000
      3 SI         -2.9829   12.4596    2.8478 Si      1  UNL1        0.0000
      4 C          -1.7067   12.4577    4.2864 C.3     1  UNL1        0.0000
      5 H          -0.9261   11.7228    4.1183 H       1  UNL1        0.0000
      6 H          -2.1834   12.2212    5.2329 H       1  UNL1        0.0000
      7 H          -1.2300   13.4276    4.3967 H       1  UNL1        0.0000
      8 C          -4.1313   13.9641    3.1682 C.3     1  UNL1        0.0000
      9 H          -3.5740   14.8959    3.1656 H       1  UNL1        0.0000
     10 H          -4.9033   14.0433    2.4090 H       1  UNL1        0.0000
     11 H          -4.6272   13.8850    4.1303 H       1  UNL1        0.0000
     12 C          -4.0570   10.8853    2.9754 C.3     1  UNL1        0.0000
     13 H          -4.9769   10.9866    2.4085 H       1  UNL1        0.0000
     14 H          -3.5269   10.0216    2.5905 H       1  UNL1        0.0000
     15 H          -4.3290   10.6777    4.0058 H       1  UNL1        0.0000
@<TRIPOS>BOND
     1     2     1    1
     2     1     3    1
     3    13    12    1
     4    10     8    1
     5    14    12    1
     6     3    12    1
     7     3     8    1
     8     3     4    1
     9    12    15    1
    10     9     8    1
    11     8    11    1
    12     5     4    1
    13     4     7    1
    14     4     6    1
