@<TRIPOS>MOLECULE
2
 36 38 0 0 0
SMALL
GASTEIGER

@<TRIPOS>ATOM
      1 SI          8.7620    1.2188   15.1796 Si      1  UNL1        0.0000
      2 C           8.8148    1.8307   13.4258 C.3     1  UNL1        0.0000
      3 H           9.6610    1.4364   12.8554 H       1  UNL1        0.0000
      4 C           9.6448   -0.4535   15.3974 C.ar    1  UNL1        0.0000
      5 C          11.0334   -0.5137   15.4623 C.ar    1  UNL1        0.0000
      6 H          11.6005    0.4052   15.4117 H       1  UNL1        0.0000
      7 C          11.6947   -1.7205   15.6001 C.ar    1  UNL1        0.0000
      8 H          12.7743   -1.7443   15.6514 H       1  UNL1        0.0000
      9 C          10.9728   -2.9000   15.6750 C.ar    1  UNL1        0.0000
     10 H          11.4856   -3.8450   15.7844 H       1  UNL1        0.0000
     11 C           9.5902   -2.8608   15.6123 C.ar    1  UNL1        0.0000
     12 H           9.0211   -3.7780   15.6740 H       1  UNL1        0.0000
     13 C           8.9374   -1.6487   15.4739 C.ar    1  UNL1        0.0000
     14 H           7.8575   -1.6227   15.4320 H       1  UNL1        0.0000
     15 C           9.6097    2.4144   16.3958 C.ar    1  UNL1        0.0000
     16 C          10.0136    2.0141   17.6652 C.ar    1  UNL1        0.0000
     17 H           9.8429    0.9928   17.9758 H       1  UNL1        0.0000
     18 C          10.6339    2.8988   18.5301 C.ar    1  UNL1        0.0000
     19 H          10.9366    2.5712   19.5147 H       1  UNL1        0.0000
     20 C          10.8702    4.2041   18.1335 C.ar    1  UNL1        0.0000
     21 H          11.3565    4.8966   18.8060 H       1  UNL1        0.0000
     22 C          10.4808    4.6172   16.8697 C.ar    1  UNL1        0.0000
     23 H          10.6676    5.6362   16.5578 H       1  UNL1        0.0000
     24 C           9.8558    3.7289   16.0130 C.ar    1  UNL1        0.0000
     25 H           9.5328    4.0487   15.0276 H       1  UNL1        0.0000
     26 C           6.9377    0.9847   15.6570 C.ar    1  UNL1        0.0000
     27 C           6.4505    1.2624   16.9277 C.ar    1  UNL1        0.0000
     28 H           7.1354    1.6023   17.6913 H       1  UNL1        0.0000
     29 C           5.1065    1.1224   17.2263 C.ar    1  UNL1        0.0000
     30 H           4.7443    1.3545   18.2180 H       1  UNL1        0.0000
     31 C           4.2230    0.6862   16.2557 C.ar    1  UNL1        0.0000
     32 H           3.1722    0.5817   16.4834 H       1  UNL1        0.0000
     33 C           4.6941    0.3842   14.9889 C.ar    1  UNL1        0.0000
     34 H           4.0098    0.0275   14.2316 H       1  UNL1        0.0000
     35 C           6.0370    0.5362   14.6970 C.ar    1  UNL1        0.0000
     36 H           6.4073    0.3031   13.7013 H       1  UNL1        0.0000
@<TRIPOS>BOND
     1     3     2    1
     2     2     1    1
     3    36    35    1
     4    34    33    1
     5    35    33   ar
     6    35    26   ar
     7    33    31   ar
     8    25    24    1
     9     1     4    1
    10     1    26    1
    11     1    15    1
    12     4     5   ar
    13     4    13   ar
    14     6     5    1
    15    14    13    1
    16     5     7   ar
    17    13    11   ar
    18     7     8    1
    19     7     9   ar
    20    11    12    1
    21    11     9   ar
    22    26    27   ar
    23     9    10    1
    24    24    15   ar
    25    24    22   ar
    26    31    32    1
    27    31    29   ar
    28    15    16   ar
    29    23    22    1
    30    22    20   ar
    31    27    29   ar
    32    27    28    1
    33    29    30    1
    34    16    17    1
    35    16    18   ar
    36    20    18   ar
    37    20    21    1
    38    18    19    1
