@<TRIPOS>MOLECULE
2
 16 15 0 0 0
SMALL
GASTEIGER

@<TRIPOS>ATOM
      1 SI         -5.2431    9.0378   -1.7562 Si      1  UNL1        0.0000
      2 C          -5.1643    8.1500   -3.4415 C.3     1  UNL1        0.0000
      3 H          -4.4442    7.3334   -3.3331 H       1  UNL1        0.0000
      4 H          -4.7205    8.8526   -4.1488 H       1  UNL1        0.0000
      5 C          -6.2082   10.6862   -1.9579 C.3     1  UNL1        0.0000
      6 H          -6.7103   10.9723   -1.0390 H       1  UNL1        0.0000
      7 H          -6.9566   10.6141   -2.7445 H       1  UNL1        0.0000
      8 H          -5.5398   11.5001   -2.2209 H       1  UNL1        0.0000
      9 C          -3.4649    9.4579   -1.1810 C.3     1  UNL1        0.0000
     10 H          -3.4719   10.0184   -0.2512 H       1  UNL1        0.0000
     11 H          -2.9353   10.0549   -1.9176 H       1  UNL1        0.0000
     12 H          -2.8847    8.5549   -1.0155 H       1  UNL1        0.0000
     13 C          -6.0456    7.9573   -0.3927 C.3     1  UNL1        0.0000
     14 H          -5.6469    8.2062    0.5865 H       1  UNL1        0.0000
     15 H          -5.8379    6.9036   -0.5672 H       1  UNL1        0.0000
     16 H          -7.1235    8.0890   -0.3461 H       1  UNL1        0.0000
@<TRIPOS>BOND
     1     4     2    1
     2     2     3    1
     3     2     1    1
     4     7     5    1
     5     8     5    1
     6     5     1    1
     7     5     6    1
     8    11     9    1
     9     1     9    1
    10     1    13    1
    11     9    12    1
    12     9    10    1
    13    15    13    1
    14    13    16    1
    15    13    14    1
