@<TRIPOS>MOLECULE
1
 4 3 0 0 0
SMALL
GASTEIGER

@<TRIPOS>ATOM
      1 C           3.9027    1.2344   12.4683 C.3     1  UNL1       -0.0681
      2 H           2.9553    1.2992   13.0213 H       1  UNL1        0.0227
      3 H           4.6149    0.7181   13.1332 H       1  UNL1        0.0227
      4 H           3.7303    0.5663   11.6108 H       1  UNL1        0.0227
@<TRIPOS>BOND
     1     4     1    1
     2     1     2    1
     3     1     3    1
