@<TRIPOS>MOLECULE
1
 4 3 0 0 0
SMALL
GASTEIGER

@<TRIPOS>ATOM
      1 C           4.9978    3.9021   13.6954 C.3     1  UNL1       -0.0681
      2 H           5.9164    3.5231   14.1693 H       1  UNL1        0.0227
      3 H           4.1781    3.7422   14.4080 H       1  UNL1        0.0227
      4 H           5.1185    4.9874   13.5689 H       1  UNL1        0.0227
@<TRIPOS>BOND
     1     4     1    1
     2     1     2    1
     3     1     3    1
