@<TRIPOS>MOLECULE
1
 4 3 0 0 0
SMALL
GASTEIGER

@<TRIPOS>ATOM
      1 C          -1.0109    5.3375    9.6177 C.3     1  UNL1       -0.0681
      2 H          -1.0736    5.6420   10.6769 H       1  UNL1        0.0227
      3 H          -2.0492    5.1852    9.2830 H       1  UNL1        0.0227
      4 H          -0.6199    6.2112    9.0648 H       1  UNL1        0.0227
@<TRIPOS>BOND
     1     4     1    1
     2     3     1    1
     3     1     2    1
