@<TRIPOS>MOLECULE
1
 4 3 0 0 0
SMALL
GASTEIGER

@<TRIPOS>ATOM
      1 C          -1.0121    1.8750    9.6187 C.3     1  UNL1       -0.0681
      2 H          -1.0751    1.5711   10.6781 H       1  UNL1        0.0227
      3 H          -2.0502    2.0278    9.2839 H       1  UNL1        0.0227
      4 H          -0.6217    1.0006    9.0665 H       1  UNL1        0.0227
@<TRIPOS>BOND
     1     4     1    1
     2     3     1    1
     3     1     2    1
