@<TRIPOS>MOLECULE
1
 4 3 0 0 0
SMALL
GASTEIGER

@<TRIPOS>ATOM
      1 C          -1.0169    5.3746    9.6548 C.3     1  UNL1       -0.0681
      2 H          -1.0485    5.7092   10.6997 H       1  UNL1        0.0227
      3 H          -2.0615    5.2125    9.3589 H       1  UNL1        0.0227
      4 H          -0.6560    6.2339    9.0721 H       1  UNL1        0.0227
@<TRIPOS>BOND
     1     4     1    1
     2     3     1    1
     3     1     2    1
