@<TRIPOS>MOLECULE
1
 15 14 0 0 0
SMALL
GASTEIGER

@<TRIPOS>ATOM
      1 C          -3.0063    2.8422    1.3640 C.3     1  UNL1       -0.0290
      2 C          -2.6126    4.2832    1.1575 C.3     1  UNL1       -0.0343
      3 C          -3.1071    5.0981    2.3686 C.3     1  UNL1       -0.0598
      4 C          -3.2551    4.8338   -0.1184 C.3     1  UNL1       -0.0598
      5 C          -1.0858    4.4427    1.0669 C.3     1  UNL1       -0.0598
      6 H          -2.4403    2.4472    2.2321 H       1  UNL1        0.0312
      7 H          -2.9207    6.1602    2.2206 H       1  UNL1        0.0235
      8 H          -2.5946    4.7823    3.2752 H       1  UNL1        0.0235
      9 H          -4.1760    4.9424    2.5078 H       1  UNL1        0.0235
     10 H          -2.9350    4.2452   -0.9773 H       1  UNL1        0.0235
     11 H          -2.9764    5.8748   -0.2754 H       1  UNL1        0.0235
     12 H          -4.3383    4.7574   -0.0428 H       1  UNL1        0.0235
     13 H          -0.8190    5.4947    0.9796 H       1  UNL1        0.0235
     14 H          -0.6989    3.9171    0.1980 H       1  UNL1        0.0235
     15 H          -0.6033    4.0392    1.9550 H       1  UNL1        0.0235
@<TRIPOS>BOND
     1    10     4    1
     2    11     4    1
     3     4    12    1
     4     4     2    1
     5    14     5    1
     6    13     5    1
     7     5     2    1
     8     5    15    1
     9     2     1    1
    10     2     3    1
    11     1     6    1
    12     7     3    1
    13     3     9    1
    14     3     8    1
