@<TRIPOS>MOLECULE
2
 16 15 0 0 0
SMALL
GASTEIGER

@<TRIPOS>ATOM
      1 SI         32.5034   -5.2535   17.4786 Si      1  UNL1        0.0000
      2 C          32.5124   -5.8246   19.2841 C.3     1  UNL1        0.0000
      3 H          33.5528   -5.9369   19.6035 H       1  UNL1        0.0000
      4 H          32.0674   -6.8221   19.3517 H       1  UNL1        0.0000
      5 C          30.7091   -5.3220   16.7995 C.3     1  UNL1        0.0000
      6 H          30.4656   -6.3189   16.4459 H       1  UNL1        0.0000
      7 H          30.5803   -4.6481   15.9584 H       1  UNL1        0.0000
      8 H          29.9793   -5.0513   17.5597 H       1  UNL1        0.0000
      9 C          33.1018   -3.4346   17.4438 C.3     1  UNL1        0.0000
     10 H          32.5189   -2.8123   18.1216 H       1  UNL1        0.0000
     11 H          33.0271   -3.0103   16.4475 H       1  UNL1        0.0000
     12 H          34.1430   -3.3654   17.7435 H       1  UNL1        0.0000
     13 C          33.6082   -6.2840   16.3123 C.3     1  UNL1        0.0000
     14 H          34.6489   -6.2366   16.6162 H       1  UNL1        0.0000
     15 H          33.5506   -5.9249   15.2896 H       1  UNL1        0.0000
     16 H          33.3173   -7.3299   16.3080 H       1  UNL1        0.0000
@<TRIPOS>BOND
     1    15    13    1
     2     7     5    1
     3    16    13    1
     4    13    14    1
     5    13     1    1
     6     6     5    1
     7    11     9    1
     8     5     1    1
     9     5     8    1
    10     9     1    1
    11     9    12    1
    12     9    10    1
    13     1     2    1
    14     2     4    1
    15     2     3    1
