@<TRIPOS>MOLECULE
2
 16 15 0 0 0
SMALL
GASTEIGER

@<TRIPOS>ATOM
      1 SI         34.4207   -2.6836   22.0051 Si      1  UNL1        0.0000
      2 C          32.6508   -3.2160   22.4381 C.3     1  UNL1        0.0000
      3 H          32.0817   -2.3348   22.7526 H       1  UNL1        0.0000
      4 H          32.7064   -3.8684   23.3174 H       1  UNL1        0.0000
      5 C          34.3721   -1.3222   20.6617 C.3     1  UNL1        0.0000
      6 H          33.7926   -1.6378   19.7985 H       1  UNL1        0.0000
      7 H          35.3744   -1.0942   20.3151 H       1  UNL1        0.0000
      8 H          33.9470   -0.3971   21.0391 H       1  UNL1        0.0000
      9 C          35.3765   -2.0000   23.5135 C.3     1  UNL1        0.0000
     10 H          34.8674   -1.1504   23.9582 H       1  UNL1        0.0000
     11 H          36.3719   -1.6711   23.2326 H       1  UNL1        0.0000
     12 H          35.4892   -2.7542   24.2862 H       1  UNL1        0.0000
     13 C          35.3573   -4.1999   21.3092 C.3     1  UNL1        0.0000
     14 H          35.0825   -5.1135   21.8304 H       1  UNL1        0.0000
     15 H          36.4298   -4.0757   21.4165 H       1  UNL1        0.0000
     16 H          35.1518   -4.3411   20.2517 H       1  UNL1        0.0000
@<TRIPOS>BOND
     1     6     5    1
     2    16    13    1
     3     7     5    1
     4     5     8    1
     5     5     1    1
     6    13    15    1
     7    13    14    1
     8    13     1    1
     9     1     2    1
    10     1     9    1
    11     2     3    1
    12     2     4    1
    13    11     9    1
    14     9    10    1
    15     9    12    1
