@<TRIPOS>MOLECULE
1
 15 14 0 0 0
SMALL
GASTEIGER

@<TRIPOS>ATOM
      1 C          17.5991    0.1311   14.6818 C.1     1  UNL1       -0.0143
      2 C          16.8769   -0.7942   14.9614 C.1     1  UNL1       -0.0825
      3 C          16.0413   -1.9547   15.2797 C.3     1  UNL1        0.0245
      4 C          16.9624   -3.1392   15.5942 C.3     1  UNL1       -0.0491
      5 C          15.1525   -1.6453   16.4905 C.3     1  UNL1       -0.0491
      6 C          15.1706   -2.2913   14.0622 C.3     1  UNL1       -0.0491
      7 H          17.6097   -2.9019   16.4356 H       1  UNL1        0.0244
      8 H          16.3766   -4.0243   15.8391 H       1  UNL1        0.0244
      9 H          17.5892   -3.3577   14.7324 H       1  UNL1        0.0244
     10 H          14.4944   -0.8044   16.2767 H       1  UNL1        0.0244
     11 H          15.7645   -1.3929   17.3545 H       1  UNL1        0.0244
     12 H          14.5378   -2.5086   16.7410 H       1  UNL1        0.0244
     13 H          14.4831   -1.4768   13.8430 H       1  UNL1        0.0244
     14 H          14.5902   -3.1936   14.2500 H       1  UNL1        0.0244
     15 H          15.7973   -2.4507   13.1869 H       1  UNL1        0.0244
@<TRIPOS>BOND
     1    15     6    1
     2    13     6    1
     3     6    14    1
     4     6     3    1
     5     1     2    3
     6     9     4    1
     7     2     3    1
     8     3     4    1
     9     3     5    1
    10     4     8    1
    11     4     7    1
    12    10     5    1
    13     5    12    1
    14     5    11    1
