@<TRIPOS>MOLECULE
10
 16 15 0 0 0
SMALL
GASTEIGER

@<TRIPOS>ATOM
      1 SI         14.5912    7.0119    0.1165 Si      1  UNL1        0.0000
      2 C          12.9909    6.0366   -0.2784 C.3     1  UNL1        0.0000
      3 H          12.5787    5.5912    0.6216 H       1  UNL1        0.0000
      4 H          13.1662    5.2375   -0.9915 H       1  UNL1        0.0000
      5 H          12.2317    6.6944   -0.6971 H       1  UNL1        0.0000
      6 C          15.9867    5.7294    0.4140 C.3     1  UNL1        0.0000
      7 H          16.9369    6.2178    0.6081 H       1  UNL1        0.0000
      8 H          16.1245    5.0720   -0.4396 H       1  UNL1        0.0000
      9 H          15.7600    5.1063    1.2737 H       1  UNL1        0.0000
     10 C          14.2493    8.2000    1.5350 C.3     1  UNL1        0.0000
     11 H          15.0961    8.9010    1.6185 H       1  UNL1        0.0000
     12 H          14.2780    7.6123    2.4654 H       1  UNL1        0.0000
     13 C          15.0615    7.9630   -1.4858 C.3     1  UNL1        0.0000
     14 H          14.2479    8.6011   -1.8197 H       1  UNL1        0.0000
     15 H          15.2863    7.2735   -2.2931 H       1  UNL1        0.0000
     16 H          15.9392    8.5849   -1.3403 H       1  UNL1        0.0000
@<TRIPOS>BOND
     1    15    13    1
     2    14    13    1
     3    13    16    1
     4    13     1    1
     5     4     2    1
     6     5     2    1
     7     8     6    1
     8     2     1    1
     9     2     3    1
    10     1     6    1
    11     1    10    1
    12     6     7    1
    13     6     9    1
    14    10    11    1
    15    10    12    1
