@<TRIPOS>MOLECULE
6
 16 15 0 0 0
SMALL
GASTEIGER

@<TRIPOS>ATOM
      1 SI         10.3530    6.9534    3.5789 Si      1  UNL1        0.0000
      2 C          12.0854    6.7160    4.3684 C.3     1  UNL1        0.0000
      3 H          12.7008    6.0632    3.7550 H       1  UNL1        0.0000
      4 H          12.0198    6.2680    5.3555 H       1  UNL1        0.0000
      5 H          12.6071    7.6677    4.4701 H       1  UNL1        0.0000
      6 C          10.4900    7.9968    2.0051 C.3     1  UNL1        0.0000
      7 H           9.5985    8.6464    1.9493 H       1  UNL1        0.0000
      8 H          10.3984    7.2960    1.1587 H       1  UNL1        0.0000
      9 C           9.6571    5.1965    3.2417 C.3     1  UNL1        0.0000
     10 H           8.6460    5.2364    2.8477 H       1  UNL1        0.0000
     11 H           9.6331    4.5942    4.1445 H       1  UNL1        0.0000
     12 H          10.2700    4.6716    2.5151 H       1  UNL1        0.0000
     13 C           9.1924    7.7537    4.8781 C.3     1  UNL1        0.0000
     14 H           9.4890    8.7728    5.1022 H       1  UNL1        0.0000
     15 H           9.2031    7.1990    5.8110 H       1  UNL1        0.0000
     16 H           8.1659    7.7823    4.5259 H       1  UNL1        0.0000
@<TRIPOS>BOND
     1     8     6    1
     2     7     6    1
     3     6     1    1
     4    12     9    1
     5    10     9    1
     6     9     1    1
     7     9    11    1
     8     1     2    1
     9     1    13    1
    10     3     2    1
    11     2     5    1
    12     2     4    1
    13    16    13    1
    14    13    14    1
    15    13    15    1
