@<TRIPOS>MOLECULE
2
 16 15 0 0 0
SMALL
GASTEIGER

@<TRIPOS>ATOM
      1 SI          3.0066    3.0957    8.8753 Si      1  UNL1        0.0000
      2 C           1.2115    3.0959    8.2271 C.3     1  UNL1        0.0000
      3 C           3.0223    3.0958   10.7971 C.3     1  UNL1        0.0000
      4 C           3.9370    1.5332    8.2839 C.3     1  UNL1        0.0000
      5 H           0.6997    2.2107    8.6373 H       1  UNL1        0.0000
      6 H           4.0400    3.0958   11.1702 H       1  UNL1        0.0000
      7 H           2.5274    2.2204   11.2046 H       1  UNL1        0.0000
      8 H           3.5929    0.6342    8.7867 H       1  UNL1        0.0000
      9 H           3.7627    1.4113    7.2137 H       1  UNL1        0.0000
     10 H           5.0073    1.6115    8.4465 H       1  UNL1        0.0000
     11 H           2.5274    3.9712   11.2046 H       1  UNL1        0.0000
     12 C           3.9369    4.6584    8.2838 C.3     1  UNL1        0.0000
     13 H           3.5929    5.5573    8.7868 H       1  UNL1        0.0000
     14 H           3.7626    4.7802    7.2136 H       1  UNL1        0.0000
     15 H           5.0072    4.5799    8.4463 H       1  UNL1        0.0000
     16 H           0.6996    3.9810    8.6375 H       1  UNL1        0.0000
@<TRIPOS>BOND
     1    14    12    1
     2     9     4    1
     3     2     5    1
     4     2    16    1
     5     2     1    1
     6    12    15    1
     7    12    13    1
     8    12     1    1
     9     4    10    1
    10     4     8    1
    11     4     1    1
    12     1     3    1
    13     3     6    1
    14     3     7    1
    15     3    11    1
