@<TRIPOS>MOLECULE
2
 16 15 0 0 0
SMALL
GASTEIGER

@<TRIPOS>ATOM
      1 SI          0.0771    5.1303    2.3351 Si      1  UNL1        0.0000
      2 C           0.9063    6.7150    1.7454 C.3     1  UNL1        0.0000
      3 H           0.1588    7.3252    1.2206 H       1  UNL1        0.0000
      4 H           1.6589    6.4507    0.9889 H       1  UNL1        0.0000
      5 C           1.3815    3.7361    2.5135 C.3     1  UNL1        0.0000
      6 H           1.7112    3.3871    1.5401 H       1  UNL1        0.0000
      7 H           0.9760    2.8817    3.0458 H       1  UNL1        0.0000
      8 H           2.2605    4.0734    3.0547 H       1  UNL1        0.0000
      9 C          -1.2995    4.4478    1.1888 C.3     1  UNL1        0.0000
     10 H          -2.1061    5.1667    1.0838 H       1  UNL1        0.0000
     11 H          -1.7288    3.5277    1.5735 H       1  UNL1        0.0000
     12 H          -0.9163    4.2405    0.1945 H       1  UNL1        0.0000
     13 C          -0.7381    5.4383    4.0440 C.3     1  UNL1        0.0000
     14 H           0.0031    5.6658    4.8088 H       1  UNL1        0.0000
     15 H          -1.2956    4.5692    4.3809 H       1  UNL1        0.0000
     16 H          -1.4366    6.2702    3.9951 H       1  UNL1        0.0000
@<TRIPOS>BOND
     1    12     9    1
     2     4     2    1
     3    10     9    1
     4     9    11    1
     5     9     1    1
     6     3     2    1
     7     6     5    1
     8     2     1    1
     9     1     5    1
    10     1    13    1
    11     5     7    1
    12     5     8    1
    13    16    13    1
    14    13    15    1
    15    13    14    1
