@<TRIPOS>MOLECULE
2
 16 15 0 0 0
SMALL
GASTEIGER

@<TRIPOS>ATOM
      1 SI         -0.7511   10.3073    4.3025 Si      1  UNL1        0.0000
      2 C           1.0435   10.2302    3.7415 C.3     1  UNL1        0.0000
      3 H           1.6772   10.7437    4.4767 H       1  UNL1        0.0000
      4 H           1.1406   10.7983    2.8081 H       1  UNL1        0.0000
      5 C          -0.9806    9.2485    5.8825 C.3     1  UNL1        0.0000
      6 H          -0.7866    8.1965    5.6823 H       1  UNL1        0.0000
      7 H          -1.9906    9.3268    6.2734 H       1  UNL1        0.0000
      8 H          -0.3031    9.5682    6.6683 H       1  UNL1        0.0000
      9 C          -1.8606    9.5663    2.9258 C.3     1  UNL1        0.0000
     10 H          -1.7863   10.1476    2.0120 H       1  UNL1        0.0000
     11 H          -2.9053    9.5543    3.2198 H       1  UNL1        0.0000
     12 H          -1.5698    8.5447    2.6912 H       1  UNL1        0.0000
     13 C          -1.4182   12.0651    4.6859 C.3     1  UNL1        0.0000
     14 H          -0.8412   12.5376    5.4746 H       1  UNL1        0.0000
     15 H          -2.4557   12.0444    5.0054 H       1  UNL1        0.0000
     16 H          -1.3580   12.7035    3.8097 H       1  UNL1        0.0000
@<TRIPOS>BOND
     1    10     9    1
     2    12     9    1
     3     4     2    1
     4     9    11    1
     5     9     1    1
     6     2     1    1
     7     2     3    1
     8    16    13    1
     9     1    13    1
    10     1     5    1
    11    13    15    1
    12    13    14    1
    13     6     5    1
    14     5     7    1
    15     5     8    1
