@<TRIPOS>MOLECULE
2
 16 15 0 0 0
SMALL
GASTEIGER

@<TRIPOS>ATOM
      1 SI         -2.5875   13.0364   10.7954 Si      1  UNL1        0.0000
      2 C          -0.7944   13.3005   10.2767 C.3     1  UNL1        0.0000
      3 H          -0.6815   12.8080    9.2965 H       1  UNL1        0.0000
      4 H          -0.1535   12.7216   10.9663 H       1  UNL1        0.0000
      5 C          -2.9304   13.7496   12.5410 C.3     1  UNL1        0.0000
      6 H          -2.3045   13.2737   13.2895 H       1  UNL1        0.0000
      7 H          -3.9642   13.5957   12.8357 H       1  UNL1        0.0000
      8 H          -2.7352   14.8184   12.5777 H       1  UNL1        0.0000
      9 C          -3.7408   13.9232    9.5473 C.3     1  UNL1        0.0000
     10 H          -3.4990   14.9804    9.4707 H       1  UNL1        0.0000
     11 H          -4.7838   13.8410    9.8361 H       1  UNL1        0.0000
     12 H          -3.6418   13.4929    8.5555 H       1  UNL1        0.0000
     13 C          -3.1264   11.1917   10.8389 C.3     1  UNL1        0.0000
     14 H          -3.0112   10.7308    9.8620 H       1  UNL1        0.0000
     15 H          -4.1653   11.0783   11.1341 H       1  UNL1        0.0000
     16 H          -2.5229   10.6239   11.5410 H       1  UNL1        0.0000
@<TRIPOS>BOND
     1    12     9    1
     2     3     2    1
     3    10     9    1
     4     9    11    1
     5     9     1    1
     6    14    13    1
     7     2     1    1
     8     2     4    1
     9     1    13    1
    10     1     5    1
    11    13    15    1
    12    13    16    1
    13     5     8    1
    14     5     7    1
    15     5     6    1
