@<TRIPOS>MOLECULE
2
 16 15 0 0 0
SMALL
GASTEIGER

@<TRIPOS>ATOM
      1 SI         -1.7967   18.1993    9.0287 Si      1  UNL1        0.0000
      2 C          -0.8259   16.6694    8.5139 C.3     1  UNL1        0.0000
      3 H          -0.1038   16.9709    7.7358 H       1  UNL1        0.0000
      4 H          -1.5353   16.0036    7.9947 H       1  UNL1        0.0000
      5 C          -2.5871   17.8739   10.7507 C.3     1  UNL1        0.0000
      6 H          -2.5142   16.8142   11.0082 H       1  UNL1        0.0000
      7 H          -3.6387   18.1433   10.7649 H       1  UNL1        0.0000
      8 H          -2.1001   18.4419   11.5380 H       1  UNL1        0.0000
      9 C          -0.6495   19.7362    9.1321 C.3     1  UNL1        0.0000
     10 H           0.2716   19.5249    9.6675 H       1  UNL1        0.0000
     11 H          -1.1420   20.5598    9.6400 H       1  UNL1        0.0000
     12 H          -0.3766   20.0833    8.1401 H       1  UNL1        0.0000
     13 C          -3.2295   18.6987    7.8549 C.3     1  UNL1        0.0000
     14 H          -2.8668   18.8998    6.8513 H       1  UNL1        0.0000
     15 H          -3.7471   19.5889    8.2005 H       1  UNL1        0.0000
     16 H          -3.9623   17.9006    7.7821 H       1  UNL1        0.0000
@<TRIPOS>BOND
     1    14    13    1
     2     3     2    1
     3    16    13    1
     4    13    15    1
     5    13     1    1
     6     4     2    1
     7    12     9    1
     8     2     1    1
     9     1     9    1
    10     1     5    1
    11     9    11    1
    12     9    10    1
    13     5     7    1
    14     5     6    1
    15     5     8    1
