@<TRIPOS>MOLECULE
1
 16 15 0 0 0
SMALL
GASTEIGER

@<TRIPOS>ATOM
      1 C           9.6444   15.3610   16.1858 C.3     1  UNL1        0.0000
      2 H           9.5191   16.1759   16.9078 H       1  UNL1        0.0000
      3 H          10.1197   14.5460   16.7457 H       1  UNL1        0.0000
      4 SI         10.8067   15.9196   14.8136 Si      1  UNL1        0.0000
      5 C          11.0368   14.5222   13.5243 C.3     1  UNL1        0.0000
      6 H          11.6684   13.7271   13.9071 H       1  UNL1        0.0000
      7 H          11.5043   14.8968   12.6186 H       1  UNL1        0.0000
      8 H          10.0819   14.0855   13.2442 H       1  UNL1        0.0000
      9 C          12.5662   16.3936   15.4194 C.3     1  UNL1        0.0000
     10 H          12.5326   17.2151   16.1282 H       1  UNL1        0.0000
     11 H          13.2044   16.6994   14.5964 H       1  UNL1        0.0000
     12 H          13.0511   15.5582   15.9147 H       1  UNL1        0.0000
     13 C          10.1264   17.4664   13.9095 C.3     1  UNL1        0.0000
     14 H           9.0852   17.3350   13.6292 H       1  UNL1        0.0000
     15 H          10.6870   17.6612   13.0003 H       1  UNL1        0.0000
     16 H          10.1972   18.3557   14.5279 H       1  UNL1        0.0000
@<TRIPOS>BOND
     1     7     5    1
     2    15    13    1
     3     8     5    1
     4     5     6    1
     5     5     4    1
     6    14    13    1
     7    13    16    1
     8    13     4    1
     9    11     9    1
    10     4     9    1
    11     4     1    1
    12     9    12    1
    13     9    10    1
    14     1     3    1
    15     1     2    1
