@<TRIPOS>MOLECULE
1
 16 15 0 0 0
SMALL
GASTEIGER

@<TRIPOS>ATOM
      1 C           6.2961   13.9641   17.0773 C.3     1  UNL1        0.0000
      2 H           5.4016   14.5964   17.1041 H       1  UNL1        0.0000
      3 H           5.9527   12.9551   16.8179 H       1  UNL1        0.0000
      4 SI          6.9815   13.8988   18.8257 Si      1  UNL1        0.0000
      5 C           7.5420   15.6420   19.3881 C.3     1  UNL1        0.0000
      6 H           8.5003   15.9081   18.9544 H       1  UNL1        0.0000
      7 H           7.6473   15.6951   20.4673 H       1  UNL1        0.0000
      8 H           6.8195   16.3968   19.0923 H       1  UNL1        0.0000
      9 C           5.7042   13.2962   20.1270 C.3     1  UNL1        0.0000
     10 H           4.8498   13.9645   20.1769 H       1  UNL1        0.0000
     11 H           6.1346   13.2430   21.1223 H       1  UNL1        0.0000
     12 H           5.3315   12.3066   19.8804 H       1  UNL1        0.0000
     13 C           8.4637   12.6923   18.9279 C.3     1  UNL1        0.0000
     14 H           8.1768   11.6992   18.5972 H       1  UNL1        0.0000
     15 H           8.8362   12.6061   19.9438 H       1  UNL1        0.0000
     16 H           9.2868   13.0208   18.3012 H       1  UNL1        0.0000
@<TRIPOS>BOND
     1     3     1    1
     2     1     2    1
     3     1     4    1
     4    16    13    1
     5    14    13    1
     6     4    13    1
     7     4     5    1
     8     4     9    1
     9    13    15    1
    10     6     5    1
    11     8     5    1
    12     5     7    1
    13    12     9    1
    14     9    10    1
    15     9    11    1
