@<TRIPOS>MOLECULE
2
 16 15 0 0 0
SMALL
GASTEIGER

@<TRIPOS>ATOM
      1 SI         -1.9141    9.7519    6.8280 Si      1  UNL1        0.0000
      2 C          -0.2495    9.6599    5.9581 C.3     1  UNL1        0.0000
      3 H          -0.3692    9.0742    5.0396 H       1  UNL1        0.0000
      4 H           0.4400    9.0837    6.5879 H       1  UNL1        0.0000
      5 C          -3.1120   10.8932    5.8625 C.3     1  UNL1        0.0000
      6 H          -2.6683   11.8745    5.6973 H       1  UNL1        0.0000
      7 H          -4.0435   11.0384    6.4013 H       1  UNL1        0.0000
      8 H          -3.3619   10.4723    4.8935 H       1  UNL1        0.0000
      9 C          -1.6805   10.5033    8.5757 C.3     1  UNL1        0.0000
     10 H          -1.0063    9.9032    9.1800 H       1  UNL1        0.0000
     11 H          -2.6226   10.5715    9.1103 H       1  UNL1        0.0000
     12 H          -1.2685   11.5057    8.4999 H       1  UNL1        0.0000
     13 C          -2.8220    8.0748    7.0731 C.3     1  UNL1        0.0000
     14 H          -3.0139    7.5924    6.1195 H       1  UNL1        0.0000
     15 H          -3.7778    8.2015    7.5725 H       1  UNL1        0.0000
     16 H          -2.2293    7.3885    7.6704 H       1  UNL1        0.0000
@<TRIPOS>BOND
     1     8     5    1
     2     3     2    1
     3     6     5    1
     4     5     7    1
     5     5     1    1
     6     2     4    1
     7     2     1    1
     8    14    13    1
     9     1    13    1
    10     1     9    1
    11    13    15    1
    12    13    16    1
    13    12     9    1
    14     9    11    1
    15     9    10    1
