@<TRIPOS>MOLECULE
1
 11 11 0 0 0
SMALL
GASTEIGER

@<TRIPOS>ATOM
      1 C          -0.3365   -2.8224   12.2135 C.ar    1  UNL1        0.0641
      2 C          -0.1950   -4.2091   12.1899 C.ar    1  UNL1        0.1720
      3 C          -0.3651   -5.0077   13.3149 C.ar    1  UNL1        0.1970
      4 C          -0.6737   -4.4196   14.5361 C.ar    1  UNL1        0.1991
      5 C          -0.7567   -3.0356   14.6167 C.ar    1  UNL1        0.1970
      6 C          -0.5696   -2.2773   13.4701 C.ar    1  UNL1        0.1720
      7 F           0.1649   -4.8059   11.0414 F       1  UNL1       -0.2016
      8 F          -0.2273   -6.3376   13.2337 F       1  UNL1       -0.1993
      9 F          -0.8621   -5.1746   15.6258 F       1  UNL1       -0.1993
     10 F          -1.0103   -2.4404   15.7922 F       1  UNL1       -0.1993
     11 F          -0.5863   -0.9272   13.5963 F       1  UNL1       -0.2016
@<TRIPOS>BOND
     1     7     2    1
     2     2     1   ar
     3     2     3   ar
     4     1     6   ar
     5     8     3    1
     6     3     4   ar
     7     6    11    1
     8     6     5   ar
     9     4     5   ar
    10     4     9    1
    11     5    10    1
