@<TRIPOS>MOLECULE
1
 4 3 0 0 0
SMALL
GASTEIGER

@<TRIPOS>ATOM
      1 C           9.7716   -2.6028    9.6836 C.3     1  UNL1       -0.0681
      2 H          10.6057   -1.9980    9.3037 H       1  UNL1        0.0227
      3 H           9.4102   -3.1935    8.8358 H       1  UNL1        0.0227
      4 H          10.2105   -3.3193   10.3871 H       1  UNL1        0.0227
@<TRIPOS>BOND
     1     3     1    1
     2     2     1    1
     3     1     4    1
