@<TRIPOS>MOLECULE
2
 16 15 0 0 0
SMALL
GASTEIGER

@<TRIPOS>ATOM
      1 SI         -1.2244    2.2330    1.3658 Si      1  UNL1        0.0000
      2 C           0.4314    2.2475    0.4621 C.3     1  UNL1        0.0000
      3 H           0.7392    1.2084    0.2815 H       1  UNL1        0.0000
      4 H           1.1914    2.6592    1.1366 H       1  UNL1        0.0000
      5 C          -1.0347    2.2936    3.2784 C.3     1  UNL1        0.0000
      6 H          -0.4159    3.1311    3.5860 H       1  UNL1        0.0000
      7 H          -0.5660    1.3895    3.6537 H       1  UNL1        0.0000
      8 H          -1.9946    2.3954    3.7755 H       1  UNL1        0.0000
      9 C          -2.3489    3.7186    0.8919 C.3     1  UNL1        0.0000
     10 H          -2.1048    4.0966   -0.1001 H       1  UNL1        0.0000
     11 H          -2.2516    4.5403    1.5942 H       1  UNL1        0.0000
     12 H          -3.3956    3.4272    0.8813 H       1  UNL1        0.0000
     13 C          -2.2398    0.6472    0.9990 C.3     1  UNL1        0.0000
     14 H          -2.6747    0.6791    0.0054 H       1  UNL1        0.0000
     15 H          -3.0529    0.5323    1.7090 H       1  UNL1        0.0000
     16 H          -1.6248   -0.2447    1.0619 H       1  UNL1        0.0000
@<TRIPOS>BOND
     1    10     9    1
     2    14    13    1
     3     3     2    1
     4     2     4    1
     5     2     1    1
     6    12     9    1
     7     9     1    1
     8     9    11    1
     9    13    16    1
    10    13     1    1
    11    13    15    1
    12     1     5    1
    13     5     6    1
    14     5     7    1
    15     5     8    1
