@<TRIPOS>MOLECULE
2
 16 15 0 0 0
SMALL
GASTEIGER

@<TRIPOS>ATOM
      1 SI          1.1987    2.3639   -5.0590 Si      1  UNL1        0.0000
      2 C           1.8379    2.3345   -3.2859 C.3     1  UNL1        0.0000
      3 H           2.8431    2.7719   -3.2871 H       1  UNL1        0.0000
      4 H           1.9723    1.2845   -2.9884 H       1  UNL1        0.0000
      5 C           0.3668    4.0323   -5.5077 C.3     1  UNL1        0.0000
      6 H           1.0990    4.8069   -5.7121 H       1  UNL1        0.0000
      7 H          -0.2712    4.3754   -4.6963 H       1  UNL1        0.0000
      8 H          -0.2541    3.9334   -6.3938 H       1  UNL1        0.0000
      9 C          -0.1010    0.9948   -5.3955 C.3     1  UNL1        0.0000
     10 H           0.1385    0.0761   -4.8699 H       1  UNL1        0.0000
     11 H          -0.1542    0.7603   -6.4542 H       1  UNL1        0.0000
     12 H          -1.0914    1.3064   -5.0812 H       1  UNL1        0.0000
     13 C           2.5910    2.0992   -6.3594 C.3     1  UNL1        0.0000
     14 H           3.3862    2.8287   -6.2385 H       1  UNL1        0.0000
     15 H           2.2187    2.1886   -7.3753 H       1  UNL1        0.0000
     16 H           3.0371    1.1146   -6.2600 H       1  UNL1        0.0000
@<TRIPOS>BOND
     1    15    13    1
     2    11     9    1
     3     8     5    1
     4    13    16    1
     5    13    14    1
     6    13     1    1
     7     6     5    1
     8     5     1    1
     9     5     7    1
    10     9    12    1
    11     9     1    1
    12     9    10    1
    13     1     2    1
    14     3     2    1
    15     2     4    1
