@<TRIPOS>MOLECULE
1
 15 14 0 0 0
SMALL
GASTEIGER

@<TRIPOS>ATOM
      1 C          -8.8056    8.4462    4.0353 C.3     1  UNL1        0.1072
      2 N          -9.5783    8.7793    3.2358 N.3     1  UNL1       -0.2219
      3 C         -10.4781    9.1807    2.2290 C.3     1  UNL1        0.0290
      4 C         -10.8203   10.6538    2.4621 C.3     1  UNL1       -0.0458
      5 H         -11.2991   10.7874    3.4298 H       1  UNL1        0.0248
      6 H         -11.5001   10.9974    1.6877 H       1  UNL1        0.0248
      7 H          -9.9170   11.2583    2.4338 H       1  UNL1        0.0248
      8 C         -11.7235    8.2963    2.3393 C.3     1  UNL1       -0.0458
      9 H         -11.4580    7.2469    2.2300 H       1  UNL1        0.0248
     10 H         -12.4300    8.5614    1.5580 H       1  UNL1        0.0248
     11 H         -12.2057    8.4328    3.3049 H       1  UNL1        0.0248
     12 C          -9.7783    8.9868    0.8814 C.3     1  UNL1       -0.0458
     13 H          -9.5096    7.9428    0.7352 H       1  UNL1        0.0248
     14 H          -8.8735    9.5884    0.8395 H       1  UNL1        0.0248
     15 H         -10.4431    9.2920    0.0781 H       1  UNL1        0.0248
@<TRIPOS>BOND
     1    15    12    1
     2    13    12    1
     3    14    12    1
     4    12     3    1
     5    10     8    1
     6     6     4    1
     7     3     8    1
     8     3     4    1
     9     3     2    1
    10     9     8    1
    11     8    11    1
    12     7     4    1
    13     4     5    1
    14     2     1    1
