@<TRIPOS>MOLECULE
1
 15 14 0 0 0
SMALL
GASTEIGER

@<TRIPOS>ATOM
      1 C          -9.0269    6.1081    5.6699 C.3     1  UNL1        0.1072
      2 N          -9.8034    5.3570    6.0941 N.3     1  UNL1       -0.2219
      3 C         -10.7008    4.4035    6.6138 C.3     1  UNL1        0.0290
      4 C         -11.4704    5.0651    7.7606 C.3     1  UNL1       -0.0458
      5 H         -10.7850    5.4148    8.5298 H       1  UNL1        0.0248
      6 H         -12.1549    4.3469    8.2029 H       1  UNL1        0.0248
      7 H         -12.0450    5.9142    7.3967 H       1  UNL1        0.0248
      8 C         -11.6437    3.9771    5.4866 C.3     1  UNL1       -0.0458
      9 H         -12.2127    4.8289    5.1202 H       1  UNL1        0.0248
     10 H         -12.3383    3.2283    5.8561 H       1  UNL1        0.0248
     11 H         -11.0760    3.5563    4.6601 H       1  UNL1        0.0248
     12 C          -9.8725    3.2173    7.1143 C.3     1  UNL1       -0.0458
     13 H          -9.1791    3.5338    7.8906 H       1  UNL1        0.0248
     14 H          -9.3041    2.7853    6.2942 H       1  UNL1        0.0248
     15 H         -10.5331    2.4586    7.5243 H       1  UNL1        0.0248
@<TRIPOS>BOND
     1    11     8    1
     2     9     8    1
     3     8    10    1
     4     8     3    1
     5     1     2    1
     6     2     3    1
     7    14    12    1
     8     3    12    1
     9     3     4    1
    10    12    15    1
    11    12    13    1
    12     7     4    1
    13     4     6    1
    14     4     5    1
