@<TRIPOS>MOLECULE
1
 15 14 0 0 0
SMALL
GASTEIGER

@<TRIPOS>ATOM
      1 C          -8.2958    8.6285    6.8354 C.3     1  UNL1        0.1072
      2 N          -8.6938    9.4646    7.5353 N.3     1  UNL1       -0.2219
      3 C          -9.1203   10.4958    8.3952 C.3     1  UNL1        0.0290
      4 C         -10.1522   11.3362    7.6374 C.3     1  UNL1       -0.0458
      5 H         -11.0178   10.7325    7.3730 H       1  UNL1        0.0248
      6 H          -9.7202   11.7410    6.7246 H       1  UNL1        0.0248
      7 H         -10.4824   12.1604    8.2633 H       1  UNL1        0.0248
      8 C          -7.8885   11.3279    8.7611 C.3     1  UNL1       -0.0458
      9 H          -7.1509   10.7045    9.2609 H       1  UNL1        0.0248
     10 H          -8.1785   12.1352    9.4277 H       1  UNL1        0.0248
     11 H          -7.4359   11.7562    7.8693 H       1  UNL1        0.0248
     12 C          -9.7359    9.8515    9.6390 C.3     1  UNL1       -0.0458
     13 H          -9.0038    9.2207   10.1375 H       1  UNL1        0.0248
     14 H         -10.5952    9.2414    9.3689 H       1  UNL1        0.0248
     15 H         -10.0623   10.6260   10.3271 H       1  UNL1        0.0248
@<TRIPOS>BOND
     1     6     4    1
     2     1     2    1
     3     5     4    1
     4     2     3    1
     5     4     7    1
     6     4     3    1
     7    11     8    1
     8     3     8    1
     9     3    12    1
    10     8     9    1
    11     8    10    1
    12    14    12    1
    13    12    13    1
    14    12    15    1
