@<TRIPOS>MOLECULE
2
 16 15 0 0 0
SMALL
GASTEIGER

@<TRIPOS>ATOM
      1 SI          7.9296    5.0900    2.3376 Si      1  UNL1        0.0000
      2 C           7.0130    6.6584    2.8634 C.3     1  UNL1        0.0000
      3 H           7.4480    7.5171    2.3393 H       1  UNL1        0.0000
      4 H           7.2498    6.8250    3.9240 H       1  UNL1        0.0000
      5 C           9.6065    5.5070    1.4986 C.3     1  UNL1        0.0000
      6 H           9.4673    6.0672    0.5792 H       1  UNL1        0.0000
      7 H          10.1580    4.6055    1.2505 H       1  UNL1        0.0000
      8 H          10.2346    6.1043    2.1519 H       1  UNL1        0.0000
      9 C           6.9949    3.9445    1.1007 C.3     1  UNL1        0.0000
     10 H           5.9704    4.2714    0.9419 H       1  UNL1        0.0000
     11 H           6.9606    2.9218    1.4661 H       1  UNL1        0.0000
     12 H           7.4913    3.9149    0.1348 H       1  UNL1        0.0000
     13 C           8.3743    4.0020    3.8568 C.3     1  UNL1        0.0000
     14 H           8.9454    4.5667    4.5877 H       1  UNL1        0.0000
     15 H           8.9791    3.1496    3.5619 H       1  UNL1        0.0000
     16 H           7.4917    3.6170    4.3579 H       1  UNL1        0.0000
@<TRIPOS>BOND
     1    12     9    1
     2     6     5    1
     3    10     9    1
     4     9    11    1
     5     9     1    1
     6     7     5    1
     7     5     8    1
     8     5     1    1
     9     1     2    1
    10     1    13    1
    11     3     2    1
    12     2     4    1
    13    15    13    1
    14    13    16    1
    15    13    14    1
