@<TRIPOS>MOLECULE
2
 16 15 0 0 0
SMALL
GASTEIGER

@<TRIPOS>ATOM
      1 SI         -1.2848    6.3049    3.0314 Si      1  UNL1        0.0000
      2 C           0.2684    5.3096    3.4279 C.3     1  UNL1        0.0000
      3 H           1.1294    5.8608    3.0365 H       1  UNL1        0.0000
      4 H           0.3666    5.3673    4.5201 H       1  UNL1        0.0000
      5 C          -2.4416    6.3810    4.5613 C.3     1  UNL1        0.0000
      6 H          -2.9093    5.4251    4.7749 H       1  UNL1        0.0000
      7 H          -3.2346    7.1104    4.4248 H       1  UNL1        0.0000
      8 H          -1.8762    6.6742    5.4419 H       1  UNL1        0.0000
      9 C          -2.3439    5.7028    1.5382 C.3     1  UNL1        0.0000
     10 H          -2.2174    6.3521    0.6770 H       1  UNL1        0.0000
     11 H          -3.4018    5.7044    1.7854 H       1  UNL1        0.0000
     12 H          -2.0817    4.6925    1.2349 H       1  UNL1        0.0000
     13 C          -0.8166    8.1280    2.6500 C.3     1  UNL1        0.0000
     14 H          -0.2529    8.5602    3.4716 H       1  UNL1        0.0000
     15 H          -1.6962    8.7446    2.4939 H       1  UNL1        0.0000
     16 H          -0.2029    8.2043    1.7574 H       1  UNL1        0.0000
@<TRIPOS>BOND
     1    10     9    1
     2    12     9    1
     3     9    11    1
     4     9     1    1
     5    16    13    1
     6    15    13    1
     7    13     1    1
     8    13    14    1
     9     1     2    1
    10     1     5    1
    11     3     2    1
    12     2     4    1
    13     7     5    1
    14     5     6    1
    15     5     8    1
