@<TRIPOS>MOLECULE
2
 16 15 0 0 0
SMALL
GASTEIGER

@<TRIPOS>ATOM
      1 SI         -1.4548   -3.9896   -4.7518 Si      1  UNL1        0.0000
      2 C           0.4085   -3.9738   -4.9702 C.3     1  UNL1        0.0000
      3 H           0.8778   -3.1743   -4.3844 H       1  UNL1        0.0000
      4 H           0.6830   -3.7921   -6.0175 H       1  UNL1        0.0000
      5 C          -2.4744   -2.9385   -5.9975 C.3     1  UNL1        0.0000
      6 H          -2.2394   -1.8837   -5.8993 H       1  UNL1        0.0000
      7 H          -3.5425   -3.0505   -5.8408 H       1  UNL1        0.0000
      8 H          -2.2633   -3.2238   -7.0236 H       1  UNL1        0.0000
      9 C          -2.0283   -5.8164   -4.9551 C.3     1  UNL1        0.0000
     10 H          -1.6851   -6.2524   -5.8949 H       1  UNL1        0.0000
     11 H          -3.1122   -5.9035   -4.9405 H       1  UNL1        0.0000
     12 H          -1.6381   -6.4213   -4.1320 H       1  UNL1        0.0000
     13 C          -1.9851   -3.4499   -2.9901 C.3     1  UNL1        0.0000
     14 H          -1.4862   -4.0454   -2.2296 H       1  UNL1        0.0000
     15 H          -3.0553   -3.5668   -2.8495 H       1  UNL1        0.0000
     16 H          -1.7535   -2.4057   -2.8050 H       1  UNL1        0.0000
@<TRIPOS>BOND
     1     8     5    1
     2     4     2    1
     3     5     6    1
     4     5     7    1
     5     5     1    1
     6    10     9    1
     7     2     1    1
     8     2     3    1
     9     9    11    1
    10     9     1    1
    11     9    12    1
    12     1    13    1
    13    13    15    1
    14    13    16    1
    15    13    14    1
