@<TRIPOS>MOLECULE
14
 16 15 0 0 0
SMALL
GASTEIGER

@<TRIPOS>ATOM
      1 SI         13.2121    6.1860    2.9215 Si      1  UNL1        0.0000
      2 C          13.8382    6.1913    4.7389 C.3     1  UNL1        0.0000
      3 H          13.4275    7.0280    5.2965 H       1  UNL1        0.0000
      4 H          14.9201    6.2642    4.7916 H       1  UNL1        0.0000
      5 H          13.5470    5.2835    5.2587 H       1  UNL1        0.0000
      6 C          13.9314    7.7863    2.1466 C.3     1  UNL1        0.0000
      7 H          13.7886    7.8280    1.0716 H       1  UNL1        0.0000
      8 H          15.0016    7.8305    2.3291 H       1  UNL1        0.0000
      9 H          13.4976    8.6796    2.5818 H       1  UNL1        0.0000
     10 C          14.1596    4.7648    2.0520 C.3     1  UNL1        0.0000
     11 H          13.9849    3.8134    2.5432 H       1  UNL1        0.0000
     12 H          15.2292    4.9507    2.0821 H       1  UNL1        0.0000
     13 H          13.8785    4.6609    1.0087 H       1  UNL1        0.0000
     14 C          11.3300    5.9810    2.8969 C.3     1  UNL1        0.0000
     15 H          10.9377    6.6347    3.6919 H       1  UNL1        0.0000
     16 H          11.1288    4.9639    3.2667 H       1  UNL1        0.0000
@<TRIPOS>BOND
     1    13    10    1
     2     7     6    1
     3    10    12    1
     4    10    11    1
     5    10     1    1
     6     6     8    1
     7     6     9    1
     8     6     1    1
     9    14     1    1
    10    14    16    1
    11    14    15    1
    12     1     2    1
    13     2     4    1
    14     2     5    1
    15     2     3    1
