@<TRIPOS>MOLECULE
6
 16 15 0 0 0
SMALL
GASTEIGER

@<TRIPOS>ATOM
      1 SI          4.2566   -7.1777   -4.1668 Si      1  UNL1        0.0000
      2 C           3.8702   -7.6039   -2.3347 C.3     1  UNL1        0.0000
      3 H           4.5343   -7.0715   -1.6610 H       1  UNL1        0.0000
      4 H           4.0013   -8.6638   -2.1389 H       1  UNL1        0.0000
      5 H           2.8440   -7.3434   -2.0771 H       1  UNL1        0.0000
      6 C           3.3254   -5.6148   -4.6232 C.3     1  UNL1        0.0000
      7 H           3.5268   -5.3315   -5.6671 H       1  UNL1        0.0000
      8 H           3.6668   -4.7723   -4.0029 H       1  UNL1        0.0000
      9 C           3.6982   -8.6543   -5.2614 C.3     1  UNL1        0.0000
     10 H           2.6597   -8.5601   -5.5723 H       1  UNL1        0.0000
     11 H           3.7975   -9.5937   -4.7255 H       1  UNL1        0.0000
     12 H           4.3109   -8.7361   -6.1544 H       1  UNL1        0.0000
     13 C           6.1731   -7.1166   -4.3088 C.3     1  UNL1        0.0000
     14 H           6.4850   -6.9049   -5.3268 H       1  UNL1        0.0000
     15 H           6.6278   -8.0582   -4.0174 H       1  UNL1        0.0000
     16 H           6.5909   -6.3419   -3.6734 H       1  UNL1        0.0000
@<TRIPOS>BOND
     1    12     9    1
     2     7     6    1
     3    10     9    1
     4    14    13    1
     5     9    11    1
     6     9     1    1
     7     6     1    1
     8     6     8    1
     9    13     1    1
    10    13    15    1
    11    13    16    1
    12     1     2    1
    13     2     4    1
    14     2     5    1
    15     2     3    1
