@<TRIPOS>MOLECULE
2
 16 15 0 0 0
SMALL
GASTEIGER

@<TRIPOS>ATOM
      1 SI          4.6402    8.6898    8.7298 Si      1  UNL1        0.0000
      2 C           5.9399    7.3127    8.7089 C.3     1  UNL1        0.0000
      3 C           3.5031    8.5550   10.2695 C.3     1  UNL1        0.0000
      4 C           5.4649   10.4221    8.8017 C.3     1  UNL1        0.0000
      5 C           3.5327    8.6096    7.1686 C.3     1  UNL1        0.0000
      6 H           5.4983    6.3806    9.0728 H       1  UNL1        0.0000
      7 H           6.7584    7.5825    9.3935 H       1  UNL1        0.0000
      8 H           3.0117    7.5880   10.3117 H       1  UNL1        0.0000
      9 H           4.0626    8.6786   11.1918 H       1  UNL1        0.0000
     10 H           2.7289    9.3157   10.2527 H       1  UNL1        0.0000
     11 H           4.7393   11.1839    9.0712 H       1  UNL1        0.0000
     12 H           6.2590   10.4575    9.5434 H       1  UNL1        0.0000
     13 H           5.8904   10.7066    7.8435 H       1  UNL1        0.0000
     14 H           2.7299    7.8899    7.2935 H       1  UNL1        0.0000
     15 H           3.0759    9.5713    6.9554 H       1  UNL1        0.0000
     16 H           4.1233    8.3106    6.3052 H       1  UNL1        0.0000
@<TRIPOS>BOND
     1    16     5    1
     2    15     5    1
     3     5    14    1
     4     5     1    1
     5    13     4    1
     6     2     1    1
     7     2     6    1
     8     2     7    1
     9     1     4    1
    10     1     3    1
    11     4    11    1
    12     4    12    1
    13    10     3    1
    14     3     8    1
    15     3     9    1
