@<TRIPOS>MOLECULE
2
 16 15 0 0 0
SMALL
GASTEIGER

@<TRIPOS>ATOM
      1 SI          8.6899    8.7299    4.6403 Si      1  UNL1        0.0000
      2 C           7.3128    8.7090    5.9400 C.3     1  UNL1        0.0000
      3 C           8.5554   10.2698    3.5034 C.3     1  UNL1        0.0000
      4 C          10.4223    8.8014    5.4649 C.3     1  UNL1        0.0000
      5 C           8.6094    7.1688    3.5326 C.3     1  UNL1        0.0000
      6 H           6.3808    9.0730    5.4983 H       1  UNL1        0.0000
      7 H           7.5826    9.3935    6.7584 H       1  UNL1        0.0000
      8 H           7.5883   10.3123    3.0121 H       1  UNL1        0.0000
      9 H           8.6792   11.1920    4.0631 H       1  UNL1        0.0000
     10 H           9.3160   10.2530    2.7292 H       1  UNL1        0.0000
     11 H          11.1840    9.0712    4.7394 H       1  UNL1        0.0000
     12 H          10.4578    9.5427    6.2594 H       1  UNL1        0.0000
     13 H          10.7068    7.8430    5.8900 H       1  UNL1        0.0000
     14 H           7.8895    7.2939    2.7299 H       1  UNL1        0.0000
     15 H           9.5710    6.9556    3.0755 H       1  UNL1        0.0000
     16 H           8.3104    6.3055    4.1230 H       1  UNL1        0.0000
@<TRIPOS>BOND
     1    10     3    1
     2    14     5    1
     3     8     3    1
     4    15     5    1
     5     3     9    1
     6     3     1    1
     7     5    16    1
     8     5     1    1
     9     1     4    1
    10     1     2    1
    11    11     4    1
    12     4    13    1
    13     4    12    1
    14     6     2    1
    15     2     7    1
