@<TRIPOS>MOLECULE
2
 16 15 0 0 0
SMALL
GASTEIGER

@<TRIPOS>ATOM
      1 SI          8.7299    4.6403    8.6898 Si      1  UNL1        0.0000
      2 C           8.7090    5.9399    7.3127 C.3     1  UNL1        0.0000
      3 C          10.2698    3.5034    8.5552 C.3     1  UNL1        0.0000
      4 C           8.8014    5.4650   10.4221 C.3     1  UNL1        0.0000
      5 C           7.1689    3.5325    8.6095 C.3     1  UNL1        0.0000
      6 H           9.0729    5.4983    6.3806 H       1  UNL1        0.0000
      7 H           9.3935    6.7584    7.5824 H       1  UNL1        0.0000
      8 H          10.3122    3.0120    7.5882 H       1  UNL1        0.0000
      9 H          11.1920    4.0631    8.6790 H       1  UNL1        0.0000
     10 H          10.2530    2.7292    9.3159 H       1  UNL1        0.0000
     11 H           9.0713    4.7395   11.1839 H       1  UNL1        0.0000
     12 H           9.5428    6.2594   10.4575 H       1  UNL1        0.0000
     13 H           7.8431    5.8901   10.7067 H       1  UNL1        0.0000
     14 H           7.2939    2.7299    7.8895 H       1  UNL1        0.0000
     15 H           6.9558    3.0755    9.5711 H       1  UNL1        0.0000
     16 H           6.3054    4.1230    8.3105 H       1  UNL1        0.0000
@<TRIPOS>BOND
     1     6     2    1
     2     2     7    1
     3     2     1    1
     4     8     3    1
     5    14     5    1
     6    16     5    1
     7     3     9    1
     8     3     1    1
     9     3    10    1
    10     5     1    1
    11     5    15    1
    12     1     4    1
    13     4    12    1
    14     4    13    1
    15     4    11    1
