@<TRIPOS>MOLECULE
2
 16 15 0 0 0
SMALL
GASTEIGER

@<TRIPOS>ATOM
      1 SI          7.3691    7.6041    5.8238 Si      1  UNL1        0.0000
      2 C           6.7694    6.2587    4.6603 C.3     1  UNL1        0.0000
      3 C           8.4969    8.8478    4.8937 C.3     1  UNL1        0.0000
      4 C           5.9165    8.6564    6.5257 C.3     1  UNL1        0.0000
      5 C           8.3288    6.9177    7.3277 C.3     1  UNL1        0.0000
      6 H           5.8448    5.8080    5.0477 H       1  UNL1        0.0000
      7 H           6.5181    6.7445    3.7031 H       1  UNL1        0.0000
      8 H           8.0811    9.1194    3.9263 H       1  UNL1        0.0000
      9 H           8.6253    9.7637    5.4630 H       1  UNL1        0.0000
     10 H           9.4831    8.4284    4.7250 H       1  UNL1        0.0000
     11 H           5.1995    8.0312    7.0499 H       1  UNL1        0.0000
     12 H           6.2694    9.4057    7.2279 H       1  UNL1        0.0000
     13 H           5.3805    9.1760    5.7359 H       1  UNL1        0.0000
     14 H           8.8705    7.7057    7.8434 H       1  UNL1        0.0000
     15 H           7.6582    6.4578    8.0466 H       1  UNL1        0.0000
     16 H           9.0425    6.1655    7.0036 H       1  UNL1        0.0000
@<TRIPOS>BOND
     1     7     2    1
     2     8     3    1
     3     2     6    1
     4     2     1    1
     5    10     3    1
     6     3     9    1
     7     3     1    1
     8    13     4    1
     9     1     4    1
    10     1     5    1
    11     4    11    1
    12     4    12    1
    13    16     5    1
    14     5    14    1
    15     5    15    1
