@<TRIPOS>MOLECULE
2
 15 14 0 0 0
SMALL
GASTEIGER

@<TRIPOS>ATOM
      1 SI         11.3894    5.2457    4.9423 Si      1  UNL1        0.0000
      2 C           9.7178    5.3206    4.1239 C.3     1  UNL1        0.0000
      3 C          11.9420    6.9284    5.7017 C.3     1  UNL1        0.0000
      4 C          11.5459    3.9904    6.3806 C.3     1  UNL1        0.0000
      5 C          12.8001    4.8212    3.6835 C.3     1  UNL1        0.0000
      6 H           9.5995    6.2873    3.6108 H       1  UNL1        0.0000
      7 H          12.9072    6.8433    6.1940 H       1  UNL1        0.0000
      8 H          12.0358    7.7020    4.9445 H       1  UNL1        0.0000
      9 H          11.2272    7.2792    6.4390 H       1  UNL1        0.0000
     10 H          11.5912    2.9697    6.0189 H       1  UNL1        0.0000
     11 H          12.4472    4.1735    6.9593 H       1  UNL1        0.0000
     12 H          10.6998    4.0702    7.0549 H       1  UNL1        0.0000
     13 H          13.4652    4.0581    4.0763 H       1  UNL1        0.0000
     14 H          12.4038    4.4571    2.7403 H       1  UNL1        0.0000
     15 H          13.4083    5.6943    3.4670 H       1  UNL1        0.0000
@<TRIPOS>BOND
     1    14     5    1
     2    15     5    1
     3     6     2    1
     4     5    13    1
     5     5     1    1
     6     2     1    1
     7     1     3    1
     8     1     4    1
     9     8     3    1
    10     3     7    1
    11     3     9    1
    12    10     4    1
    13     4    11    1
    14     4    12    1
