@<TRIPOS>MOLECULE
3
 65 67 0 0 0
SMALL
GASTEIGER

@<TRIPOS>ATOM
      1 N           8.2359    5.1585    0.9688 N.pl3   1  UNL1       -0.2762
      2 N           8.3409    3.0530    1.3648 N.pl3   1  UNL1       -0.2762
      3 C           8.1978    4.2487    1.9752 C.3     1  UNL1        0.1959
      4 C           8.4094    4.5356   -0.2452 C.2     1  UNL1        0.0131
      5 C           8.4719    3.2107    0.0032 C.2     1  UNL1        0.0131
      6 C           7.9943    6.5588    1.0644 C.ar    1  UNL1        0.0424
      7 C           9.0713    7.4496    1.0268 C.ar    1  UNL1       -0.0231
      8 C           8.7938    8.8109    1.0425 C.ar    1  UNL1       -0.0565
      9 C           7.4923    9.2696    1.0926 C.ar    1  UNL1       -0.0611
     10 C           6.4379    8.3763    1.1136 C.ar    1  UNL1       -0.0565
     11 C           6.6654    7.0070    1.0983 C.ar    1  UNL1       -0.0231
     12 C          10.4978    6.9598    0.9164 C.3     1  UNL1       -0.0197
     13 C          11.4604    7.7810    1.7749 C.3     1  UNL1       -0.0586
     14 C          10.9518    7.0121   -0.5471 C.3     1  UNL1       -0.0586
     15 C           5.5119    6.0259    1.0396 C.3     1  UNL1       -0.0197
     16 C           5.1716    5.7336   -0.4272 C.3     1  UNL1       -0.0586
     17 C           4.2561    6.5113    1.7650 C.3     1  UNL1       -0.0586
     18 C           8.1946    1.7582    1.9367 C.ar    1  UNL1        0.0424
     19 C           6.9454    1.1376    1.8244 C.ar    1  UNL1       -0.0231
     20 C           6.8125   -0.1600    2.3011 C.ar    1  UNL1       -0.0565
     21 C           7.9002   -0.8310    2.8243 C.ar    1  UNL1       -0.0611
     22 C           9.1308   -0.2068    2.9121 C.ar    1  UNL1       -0.0565
     23 C           9.3011    1.1058    2.4883 C.ar    1  UNL1       -0.0231
     24 C           5.7585    1.8663    1.2318 C.3     1  UNL1       -0.0197
     25 C           4.8924    0.9644    0.3502 C.3     1  UNL1       -0.0586
     26 C           4.9242    2.4836    2.3585 C.3     1  UNL1       -0.0586
     27 C          10.6246    1.8254    2.6133 C.3     1  UNL1       -0.0197
     28 C          11.5759    1.1660    3.6102 C.3     1  UNL1       -0.0586
     29 C          11.3288    1.9063    1.2522 C.3     1  UNL1       -0.0586
     30 H           8.4653    5.0794   -1.1665 H       1  UNL1        0.0797
     31 H           8.5813    2.3769   -0.6607 H       1  UNL1        0.0797
     32 H           9.6035    9.5218    1.0132 H       1  UNL1        0.0621
     33 H           7.2958   10.3314    1.1070 H       1  UNL1        0.0618
     34 H           5.4281    8.7530    1.1386 H       1  UNL1        0.0621
     35 H          10.5449    5.9214    1.2645 H       1  UNL1        0.0344
     36 H          12.4159    7.2678    1.8412 H       1  UNL1        0.0235
     37 H          11.6354    8.7647    1.3454 H       1  UNL1        0.0235
     38 H          11.0702    7.9017    2.7814 H       1  UNL1        0.0235
     39 H          10.8835    8.0294   -0.9276 H       1  UNL1        0.0235
     40 H          11.9853    6.6828   -0.6248 H       1  UNL1        0.0235
     41 H          10.3423    6.3706   -1.1787 H       1  UNL1        0.0235
     42 H           5.8225    5.0878    1.5168 H       1  UNL1        0.0344
     43 H           4.3365    5.0384   -0.4856 H       1  UNL1        0.0235
     44 H           4.8906    6.6530   -0.9377 H       1  UNL1        0.0235
     45 H           6.0175    5.2955   -0.9527 H       1  UNL1        0.0235
     46 H           3.5413    5.6938    1.8392 H       1  UNL1        0.0235
     47 H           4.4894    6.8494    2.7721 H       1  UNL1        0.0235
     48 H           3.7749    7.3241    1.2254 H       1  UNL1        0.0235
     49 H           5.8563   -0.6562    2.2545 H       1  UNL1        0.0621
     50 H           7.7881   -1.8477    3.1712 H       1  UNL1        0.0618
     51 H           9.9632   -0.7520    3.3249 H       1  UNL1        0.0621
     52 H           6.1225    2.6783    0.5938 H       1  UNL1        0.0344
     53 H           4.1654    1.5674   -0.1902 H       1  UNL1        0.0235
     54 H           5.5046    0.4326   -0.3752 H       1  UNL1        0.0235
     55 H           4.3449    0.2361    0.9421 H       1  UNL1        0.0235
     56 H           4.1159    3.0825    1.9423 H       1  UNL1        0.0235
     57 H           4.4866    1.7005    2.9733 H       1  UNL1        0.0235
     58 H           5.5528    3.1105    2.9970 H       1  UNL1        0.0235
     59 H          10.4024    2.8384    2.9817 H       1  UNL1        0.0344
     60 H          12.4229    1.8247    3.7793 H       1  UNL1        0.0235
     61 H          11.0817    0.9965    4.5613 H       1  UNL1        0.0235
     62 H          11.9564    0.2204    3.2280 H       1  UNL1        0.0235
     63 H          12.3126    2.3526    1.3755 H       1  UNL1        0.0235
     64 H          11.4567    0.9083    0.8353 H       1  UNL1        0.0235
     65 H          10.7732    2.5082    0.5387 H       1  UNL1        0.0235
@<TRIPOS>BOND
     1    41    14    1
     2    30     4    1
     3    45    16    1
     4    44    16    1
     5    39    14    1
     6    31     5    1
     7    40    14    1
     8    14    12    1
     9    43    16    1
    10    16    15    1
    11    54    25    1
    12     4     5    2
    13     4     1    1
    14    53    25    1
    15     5     2    1
    16    25    55    1
    17    25    24    1
    18    65    29    1
    19    52    24    1
    20    64    29    1
    21    12     7    1
    22    12    35    1
    23    12    13    1
    24     1     6    1
    25     1     3    1
    26    32     8    1
    27     7     8   ar
    28     7     6   ar
    29    15    11    1
    30    15    42    1
    31    15    17    1
    32     8     9   ar
    33     6    11   ar
    34     9    33    1
    35     9    10   ar
    36    11    10   ar
    37    10    34    1
    38    48    17    1
    39    24    19    1
    40    24    26    1
    41    29    63    1
    42    29    27    1
    43    37    13    1
    44     2    18    1
    45     2     3    1
    46    17    46    1
    47    17    47    1
    48    13    36    1
    49    13    38    1
    50    19    18   ar
    51    19    20   ar
    52    18    23   ar
    53    56    26    1
    54    49    20    1
    55    20    21   ar
    56    26    57    1
    57    26    58    1
    58    23    27    1
    59    23    22   ar
    60    27    59    1
    61    27    28    1
    62    21    22   ar
    63    21    50    1
    64    22    51    1
    65    62    28    1
    66    28    60    1
    67    28    61    1
