@<TRIPOS>MOLECULE
1
 16 15 0 0 0
SMALL
GASTEIGER

@<TRIPOS>ATOM
      1 C          15.6645   12.2482    9.3978 C.3     1  UNL1        0.0000
      2 C          15.4997   12.8597   10.5137 C.3     1  UNL1        0.0000
      3 SI         15.6216   11.8311   12.1239 Si      1  UNL1        0.0000
      4 C          13.9771   10.9196   12.4267 C.3     1  UNL1        0.0000
      5 C          17.0502   10.5861   11.9676 C.3     1  UNL1        0.0000
      6 C          15.9603   13.0977   13.5131 C.3     1  UNL1        0.0000
      7 H          15.2801   13.9079   10.6350 H       1  UNL1        0.0000
      8 H          13.8479   10.1399   11.6831 H       1  UNL1        0.0000
      9 H          13.1257   11.5901   12.3551 H       1  UNL1        0.0000
     10 H          13.9561   10.4547   13.4077 H       1  UNL1        0.0000
     11 H          18.0190   11.0765   11.9357 H       1  UNL1        0.0000
     12 H          16.9246   10.0233   11.0468 H       1  UNL1        0.0000
     13 H          17.0642    9.8772   12.7898 H       1  UNL1        0.0000
     14 H          15.1405   13.8017   13.6153 H       1  UNL1        0.0000
     15 H          16.8658   13.6681   13.3315 H       1  UNL1        0.0000
     16 H          16.0767   12.5926   14.4659 H       1  UNL1        0.0000
@<TRIPOS>BOND
     1     1     2    1
     2     2     7    1
     3     2     3    1
     4    12     5    1
     5     8     4    1
     6    11     5    1
     7     5     3    1
     8     5    13    1
     9     3     4    1
    10     3     6    1
    11     9     4    1
    12     4    10    1
    13    15     6    1
    14     6    14    1
    15     6    16    1
