@<TRIPOS>MOLECULE
2
 26 27 0 0 0
SMALL
GASTEIGER

@<TRIPOS>ATOM
      1 B          -3.3152    7.6900   13.5265 B       1  UNL1        0.0000
      2 C          -1.8424    7.5588   13.6759 C.3     1  UNL1        0.0000
      3 H          -1.4457    7.7151   14.6769 H       1  UNL1        0.0000
      4 H          -1.1894    8.0001   12.9273 H       1  UNL1        0.0000
      5 C          -4.1054    8.1414   12.2300 C.ar    1  UNL1        0.0000
      6 C          -5.4768    7.9123   12.0849 C.ar    1  UNL1        0.0000
      7 C          -6.2101    8.3374   10.9836 C.ar    1  UNL1        0.0000
      8 C          -5.5758    9.0337    9.9601 C.ar    1  UNL1        0.0000
      9 C          -4.2115    9.2837   10.0628 C.ar    1  UNL1        0.0000
     10 C          -3.5103    8.8408   11.1777 C.ar    1  UNL1        0.0000
     11 F          -6.1392    7.2258   13.0298 F       1  UNL1        0.0000
     12 F          -7.5173    8.0770   10.9038 F       1  UNL1        0.0000
     13 F          -6.2622    9.4492    8.8971 F       1  UNL1        0.0000
     14 F          -3.5780    9.9444    9.0897 F       1  UNL1        0.0000
     15 F          -2.1969    9.1092   11.2141 F       1  UNL1        0.0000
     16 C          -4.1707    7.3323   14.8242 C.ar    1  UNL1        0.0000
     17 C          -4.6826    8.2541   15.7297 C.ar    1  UNL1        0.0000
     18 C          -5.3136    7.8643   16.9077 C.ar    1  UNL1        0.0000
     19 C          -5.4321    6.5102   17.2153 C.ar    1  UNL1        0.0000
     20 C          -4.9381    5.5617   16.3247 C.ar    1  UNL1        0.0000
     21 C          -4.3399    5.9982   15.1538 C.ar    1  UNL1        0.0000
     22 F          -4.5609    9.5595   15.4656 F       1  UNL1        0.0000
     23 F          -5.7931    8.7761   17.7530 F       1  UNL1        0.0000
     24 F          -6.0079    6.1263   18.3531 F       1  UNL1        0.0000
     25 F          -5.0074    4.2549   16.6046 F       1  UNL1        0.0000
     26 F          -3.8778    5.0664   14.2562 F       1  UNL1        0.0000
@<TRIPOS>BOND
     1    13     8    1
     2    14     9    1
     3     8     9   ar
     4     8     7   ar
     5     9    10   ar
     6    12     7    1
     7     7     6   ar
     8    10    15    1
     9    10     5   ar
    10     6     5   ar
    11     6    11    1
    12     5     1    1
    13     4     2    1
    14     1     2    1
    15     1    16    1
    16     2     3    1
    17    26    21    1
    18    16    21   ar
    19    16    17   ar
    20    21    20   ar
    21    22    17    1
    22    17    18   ar
    23    20    25    1
    24    20    19   ar
    25    18    19   ar
    26    18    23    1
    27    19    24    1
