@<TRIPOS>MOLECULE
1
 11 11 0 0 0
SMALL
GASTEIGER

@<TRIPOS>ATOM
      1 C          -1.6033    4.7221   15.5222 C.ar    1  UNL1        0.0641
      2 C          -1.5792    5.4232   16.7202 C.ar    1  UNL1        0.1720
      3 C          -1.7592    4.8457   17.9721 C.ar    1  UNL1        0.1970
      4 C          -1.9870    3.4754   18.0594 C.ar    1  UNL1        0.1991
      5 C          -2.0407    2.7203   16.8909 C.ar    1  UNL1        0.1970
      6 C          -1.8526    3.3645   15.6747 C.ar    1  UNL1        0.1720
      7 F          -1.3843    6.7655   16.6580 F       1  UNL1       -0.2016
      8 F          -1.7219    5.5915   19.0809 F       1  UNL1       -0.1993
      9 F          -2.1506    2.8930   19.2475 F       1  UNL1       -0.1993
     10 F          -2.2556    1.4032   16.9495 F       1  UNL1       -0.1993
     11 F          -1.9090    2.6338   14.5261 F       1  UNL1       -0.2016
@<TRIPOS>BOND
     1    11     6    1
     2     1     6   ar
     3     1     2   ar
     4     6     5   ar
     5     7     2    1
     6     2     3   ar
     7     5    10    1
     8     5     4   ar
     9     3     4   ar
    10     3     8    1
    11     4     9    1
