@<TRIPOS>MOLECULE
2
 15 14 0 0 0
SMALL
GASTEIGER

@<TRIPOS>ATOM
      1 SI         15.2765    1.2147    6.7646 Si      1  UNL1        0.0000
      2 C          13.5991    3.7435    6.4210 C.1     1  UNL1        0.0000
      3 C          14.2362    2.7234    6.6089 C.1     1  UNL1        0.0000
      4 C          16.8044    1.5858    7.8512 C.3     1  UNL1        0.0000
      5 H          16.5122    1.8550    8.8621 H       1  UNL1        0.0000
      6 H          17.3766    2.4144    7.4442 H       1  UNL1        0.0000
      7 H          17.4687    0.7285    7.9188 H       1  UNL1        0.0000
      8 C          14.2854   -0.2150    7.5584 C.3     1  UNL1        0.0000
      9 H          14.9106   -1.0856    7.7371 H       1  UNL1        0.0000
     10 H          13.4643   -0.5267    6.9188 H       1  UNL1        0.0000
     11 H          13.8617    0.0877    8.5117 H       1  UNL1        0.0000
     12 C          15.8638    0.6801    5.0265 C.3     1  UNL1        0.0000
     13 H          16.5565   -0.1556    5.0702 H       1  UNL1        0.0000
     14 H          16.3630    1.5011    4.5197 H       1  UNL1        0.0000
     15 H          15.0243    0.3804    4.4056 H       1  UNL1        0.0000
@<TRIPOS>BOND
     1    15    12    1
     2    14    12    1
     3    12    13    1
     4    12     1    1
     5     2     3    3
     6     3     1    1
     7     1     8    1
     8     1     4    1
     9    10     8    1
    10     6     4    1
    11     8     9    1
    12     8    11    1
    13     4     7    1
    14     4     5    1
