@<TRIPOS>MOLECULE
6
 34 34 0 0 0
SMALL
GASTEIGER

@<TRIPOS>ATOM
      1 SI          8.0017   21.0618   17.3118 Si      1  UNL1        0.0000
      2 C          10.4744   19.7823   16.7338 C.2     1  UNL1        0.0000
      3 C          11.6746   20.3818   16.4553 C.2     1  UNL1        0.0000
      4 C          11.8183   21.5301   17.2992 C.2     1  UNL1        0.0000
      5 C          10.6997   21.6468   18.0815 C.2     1  UNL1        0.0000
      6 C           9.7745   20.5431   17.7809 C.3     1  UNL1        0.0000
      7 C          12.6982   19.9786   15.4393 C.3     1  UNL1        0.0000
      8 H          13.6599   19.7556   15.9079 H       1  UNL1        0.0000
      9 H          12.8610   20.7919   14.7317 H       1  UNL1        0.0000
     10 H          12.3791   19.1038   14.8770 H       1  UNL1        0.0000
     11 C          13.0003   22.4474   17.2751 C.3     1  UNL1        0.0000
     12 H          12.8773   23.2112   16.5049 H       1  UNL1        0.0000
     13 H          13.9175   21.9021   17.0548 H       1  UNL1        0.0000
     14 H          13.1199   22.9544   18.2310 H       1  UNL1        0.0000
     15 C          10.4300   22.7684   19.0386 C.3     1  UNL1        0.0000
     16 H          10.1342   23.6686   18.4961 H       1  UNL1        0.0000
     17 H          11.3264   23.0141   19.6089 H       1  UNL1        0.0000
     18 H           9.6372   22.5116   19.7383 H       1  UNL1        0.0000
     19 C           9.8864   18.5829   16.0516 C.3     1  UNL1        0.0000
     20 H          10.6617   17.9521   15.6169 H       1  UNL1        0.0000
     21 H           9.2210   18.8880   15.2412 H       1  UNL1        0.0000
     22 H           9.3157   17.9789   16.7595 H       1  UNL1        0.0000
     23 C           8.0370   22.0163   15.6495 C.3     1  UNL1        0.0000
     24 H           8.6608   22.9006   15.7299 H       1  UNL1        0.0000
     25 H           7.0450   22.3352   15.3454 H       1  UNL1        0.0000
     26 H           8.4488   21.4058   14.8526 H       1  UNL1        0.0000
     27 C           7.1629   22.2055   18.5999 C.3     1  UNL1        0.0000
     28 H           6.0983   22.2666   18.3981 H       1  UNL1        0.0000
     29 H           7.5566   23.2147   18.5665 H       1  UNL1        0.0000
     30 H           7.2808   21.8271   19.6112 H       1  UNL1        0.0000
     31 C           6.8038   19.5755   17.1108 C.3     1  UNL1        0.0000
     32 H           7.0222   18.9799   16.2318 H       1  UNL1        0.0000
     33 H           5.7854   19.9375   17.0073 H       1  UNL1        0.0000
     34 H           6.8254   18.9221   17.9807 H       1  UNL1        0.0000
@<TRIPOS>BOND
     1     9     7    1
     2    26    23    1
     3    10     7    1
     4    21    19    1
     5    25    23    1
     6     7     8    1
     7     7     3    1
     8    20    19    1
     9    23    24    1
    10    23     1    1
    11    19     2    1
    12    19    22    1
    13    32    31    1
    14     3     2    2
    15     3     4    1
    16    12    11    1
    17     2     6    1
    18    33    31    1
    19    13    11    1
    20    31     1    1
    21    31    34    1
    22    11     4    1
    23    11    14    1
    24     4     5    2
    25     1     6    1
    26     1    27    1
    27     6     5    1
    28     5    15    1
    29    28    27    1
    30    16    15    1
    31    29    27    1
    32    27    30    1
    33    15    17    1
    34    15    18    1
