@<TRIPOS>MOLECULE
2
 16 15 0 0 0
SMALL
GASTEIGER

@<TRIPOS>ATOM
      1 SI         10.7612   19.2786   23.1529 Si      1  UNL1        0.0000
      2 C          10.4477   20.3093   21.6084 C.3     1  UNL1        0.0000
      3 H          11.3449   20.8880   21.3624 H       1  UNL1        0.0000
      4 H           9.6732   21.0484   21.8533 H       1  UNL1        0.0000
      5 C          10.9635   20.2897   24.7709 C.3     1  UNL1        0.0000
      6 H          10.0622   20.8517   24.9945 H       1  UNL1        0.0000
      7 H          11.7797   21.0012   24.6916 H       1  UNL1        0.0000
      8 H          11.1693   19.6496   25.6234 H       1  UNL1        0.0000
      9 C           9.3021   18.0704   23.4318 C.3     1  UNL1        0.0000
     10 H           9.1275   17.4419   22.5611 H       1  UNL1        0.0000
     11 H           8.3838   18.6172   23.6242 H       1  UNL1        0.0000
     12 H           9.4748   17.4181   24.2828 H       1  UNL1        0.0000
     13 C          12.3807   18.2702   22.9478 C.3     1  UNL1        0.0000
     14 H          13.2522   18.9106   23.0441 H       1  UNL1        0.0000
     15 H          12.4266   17.7885   21.9763 H       1  UNL1        0.0000
     16 H          12.4626   17.4996   23.7082 H       1  UNL1        0.0000
@<TRIPOS>BOND
     1     3     2    1
     2     2     4    1
     3     2     1    1
     4    15    13    1
     5    10     9    1
     6    13    14    1
     7    13     1    1
     8    13    16    1
     9     1     9    1
    10     1     5    1
    11     9    11    1
    12     9    12    1
    13     7     5    1
    14     5     6    1
    15     5     8    1
