@<TRIPOS>MOLECULE
2
 16 15 0 0 0
SMALL
GASTEIGER

@<TRIPOS>ATOM
      1 SI          5.5561    2.1104    1.4764 Si      1  UNL1        0.0000
      2 C           3.8412    2.2295    2.2470 C.3     1  UNL1        0.0000
      3 H           3.4999    1.1885    2.3601 H       1  UNL1        0.0000
      4 H           3.1630    2.6722    1.4918 H       1  UNL1        0.0000
      5 C           5.5694    2.4565   -0.4163 C.3     1  UNL1        0.0000
      6 H           4.9668    1.7314   -0.9549 H       1  UNL1        0.0000
      7 H           6.5737    2.4165   -0.8275 H       1  UNL1        0.0000
      8 H           5.1649    3.4412   -0.6366 H       1  UNL1        0.0000
      9 C           6.2800    0.3547    1.7296 C.3     1  UNL1        0.0000
     10 H           6.1279    0.0180    2.7504 H       1  UNL1        0.0000
     11 H           7.3447    0.3168    1.5208 H       1  UNL1        0.0000
     12 H           5.7926   -0.3649    1.0788 H       1  UNL1        0.0000
     13 C           6.7940    3.3796    2.2321 C.3     1  UNL1        0.0000
     14 H           6.4134    3.7905    3.1663 H       1  UNL1        0.0000
     15 H           6.9852    4.2094    1.5568 H       1  UNL1        0.0000
     16 H           7.7533    2.9185    2.4449 H       1  UNL1        0.0000
@<TRIPOS>BOND
     1     6     5    1
     2     7     5    1
     3     8     5    1
     4     5     1    1
     5    12     9    1
     6     1     9    1
     7     1    13    1
     8     1     2    1
     9     4     2    1
    10    11     9    1
    11    15    13    1
    12     9    10    1
    13    13    16    1
    14    13    14    1
    15     2     3    1
