@<TRIPOS>MOLECULE
2
 16 15 0 0 0
SMALL
GASTEIGER

@<TRIPOS>ATOM
      1 SI          2.5470    7.0753    1.1169 Si      1  UNL1        0.0000
      2 C           2.6378    5.3992    1.9749 C.3     1  UNL1        0.0000
      3 H           3.6319    5.3137    2.4360 H       1  UNL1        0.0000
      4 H           2.6246    4.6431    1.1801 H       1  UNL1        0.0000
      5 C           1.9332    6.8658   -0.6854 C.3     1  UNL1        0.0000
      6 H           2.7578    6.6115   -1.3432 H       1  UNL1        0.0000
      7 H           1.4728    7.7699   -1.0708 H       1  UNL1        0.0000
      8 H           1.2066    6.0632   -0.7556 H       1  UNL1        0.0000
      9 C           4.2368    7.9840    1.0259 C.3     1  UNL1        0.0000
     10 H           4.6494    8.1482    2.0173 H       1  UNL1        0.0000
     11 H           4.1463    8.9538    0.5462 H       1  UNL1        0.0000
     12 H           4.9633    7.4058    0.4635 H       1  UNL1        0.0000
     13 C           1.3666    8.3019    2.0153 C.3     1  UNL1        0.0000
     14 H           0.9472    9.0303    1.3270 H       1  UNL1        0.0000
     15 H           1.8878    8.8565    2.7905 H       1  UNL1        0.0000
     16 H           0.5380    7.7771    2.4885 H       1  UNL1        0.0000
@<TRIPOS>BOND
     1     6     5    1
     2     7     5    1
     3     8     5    1
     4     5     1    1
     5    12     9    1
     6    11     9    1
     7     9     1    1
     8     9    10    1
     9     1     2    1
    10     1    13    1
    11     4     2    1
    12    14    13    1
    13     2     3    1
    14    13    16    1
    15    13    15    1
