@<TRIPOS>MOLECULE
2
 16 15 0 0 0
SMALL
GASTEIGER

@<TRIPOS>ATOM
      1 SI          4.2265    5.2900    7.0584 Si      1  UNL1        0.0000
      2 C           4.7543    4.5046    5.4322 C.3     1  UNL1        0.0000
      3 H           5.6565    3.9110    5.6445 H       1  UNL1        0.0000
      4 H           5.1076    5.3298    4.7882 H       1  UNL1        0.0000
      5 C           2.8282    6.5718    6.7548 C.3     1  UNL1        0.0000
      6 H           2.9370    7.0457    5.7825 H       1  UNL1        0.0000
      7 H           2.8273    7.3561    7.5053 H       1  UNL1        0.0000
      8 H           1.8579    6.0878    6.7858 H       1  UNL1        0.0000
      9 C           5.6167    6.2300    7.9984 C.3     1  UNL1        0.0000
     10 H           6.4550    5.5732    8.2108 H       1  UNL1        0.0000
     11 H           5.2705    6.6326    8.9461 H       1  UNL1        0.0000
     12 H           5.9968    7.0598    7.4098 H       1  UNL1        0.0000
     13 C           3.5567    3.9744    8.2825 C.3     1  UNL1        0.0000
     14 H           2.7458    3.4071    7.8313 H       1  UNL1        0.0000
     15 H           3.1755    4.4318    9.1908 H       1  UNL1        0.0000
     16 H           4.3337    3.2740    8.5738 H       1  UNL1        0.0000
@<TRIPOS>BOND
     1     4     2    1
     2     2     3    1
     3     2     1    1
     4     6     5    1
     5     5     8    1
     6     5     1    1
     7     5     7    1
     8     1     9    1
     9     1    13    1
    10    12     9    1
    11    14    13    1
    12     9    10    1
    13     9    11    1
    14    13    16    1
    15    13    15    1
