@<TRIPOS>MOLECULE
1
 14 14 0 0 0
SMALL
GASTEIGER

@<TRIPOS>ATOM
      1 C           4.6681    0.2914    2.7397 C.3     1  UNL1       -0.0237
      2 H           4.6509   -0.2687    1.7918 H       1  UNL1        0.0316
      3 H           5.4930   -0.0924    3.3652 H       1  UNL1        0.0316
      4 C           3.3892    0.0925    3.4310 C.ar    1  UNL1       -0.0470
      5 C           3.2915    0.1220    4.8312 C.ar    1  UNL1       -0.0586
      6 H           4.1915    0.2468    5.4222 H       1  UNL1        0.0620
      7 C           2.0785   -0.0418    5.4704 C.ar    1  UNL1       -0.0615
      8 H           2.0333   -0.0096    6.5505 H       1  UNL1        0.0618
      9 C           0.9229   -0.2651    4.7382 C.ar    1  UNL1       -0.0617
     10 H          -0.0245   -0.3931    5.2400 H       1  UNL1        0.0618
     11 C           1.0055   -0.3597    3.3583 C.ar    1  UNL1       -0.0615
     12 H           0.1196   -0.5745    2.7778 H       1  UNL1        0.0618
     13 C           2.2163   -0.1928    2.7172 C.ar    1  UNL1       -0.0586
     14 H           2.2708   -0.3080    1.6425 H       1  UNL1        0.0620
@<TRIPOS>BOND
     1    14    13    1
     2     2     1    1
     3    13    11   ar
     4    13     4   ar
     5     1     3    1
     6     1     4    1
     7    12    11    1
     8    11     9   ar
     9     4     5   ar
    10     9    10    1
    11     9     7   ar
    12     5     6    1
    13     5     7   ar
    14     7     8    1
