@<TRIPOS>MOLECULE
5
 25 25 0 0 0
SMALL
GASTEIGER

@<TRIPOS>ATOM
      1 C           4.7933    8.5759    5.9488 C.2     1  UNL1       -0.0584
      2 C           4.2507    8.1319    4.7084 C.2     1  UNL1       -0.0477
      3 C           3.2276    7.1873    4.9844 C.2     1  UNL1       -0.0477
      4 C           3.1440    7.0328    6.4018 C.2     1  UNL1       -0.0584
      5 C           4.1229    7.8854    7.0003 C.3     1  UNL1        0.0231
      6 C           6.0444    9.4069    6.0596 C.3     1  UNL1       -0.0424
      7 C           4.8987    8.4154    3.3830 C.3     1  UNL1       -0.0395
      8 C           2.5253    6.2876    4.0016 C.3     1  UNL1       -0.0395
      9 C           2.4269    5.9106    7.1059 C.3     1  UNL1       -0.0424
     10 C           4.5216    7.8314    8.4504 C.3     1  UNL1       -0.0510
     11 H           6.9022    8.8342    5.6992 H       1  UNL1        0.0275
     12 H           6.2442    9.6894    7.0905 H       1  UNL1        0.0275
     13 H           5.9833   10.3154    5.4571 H       1  UNL1        0.0275
     14 H           5.0784    9.4809    3.2417 H       1  UNL1        0.0278
     15 H           5.8682    7.9136    3.3364 H       1  UNL1        0.0278
     16 H           4.2972    8.0504    2.5558 H       1  UNL1        0.0278
     17 H           2.8600    5.2571    4.1367 H       1  UNL1        0.0278
     18 H           2.7498    6.5744    2.9774 H       1  UNL1        0.0278
     19 H           1.4408    6.3021    4.1345 H       1  UNL1        0.0278
     20 H           2.1072    6.2054    8.1034 H       1  UNL1        0.0275
     21 H           1.5547    5.5806    6.5432 H       1  UNL1        0.0275
     22 H           3.0978    5.0534    7.2095 H       1  UNL1        0.0275
     23 H           5.1821    8.6556    8.7094 H       1  UNL1        0.0242
     24 H           5.0508    6.8975    8.6552 H       1  UNL1        0.0242
     25 H           3.6477    7.8769    9.0989 H       1  UNL1        0.0242
@<TRIPOS>BOND
     1    16     7    1
     2    18     8    1
     3    14     7    1
     4    15     7    1
     5     7     2    1
     6     8    19    1
     7     8    17    1
     8     8     3    1
     9     2     3    1
    10     2     1    2
    11     3     4    2
    12    13     6    1
    13    11     6    1
    14     1     6    1
    15     1     5    1
    16     6    12    1
    17     4     5    1
    18     4     9    1
    19    21     9    1
    20     5    10    1
    21     9    22    1
    22     9    20    1
    23    10    24    1
    24    10    23    1
    25    10    25    1
