@<TRIPOS>MOLECULE
2
 15 14 0 0 0
SMALL
GASTEIGER

@<TRIPOS>ATOM
      1 N           4.8122   10.3168    3.2162 N.3     1  UNL1       -0.2219
      2 C           3.8096    9.7704    3.5423 C.3     1  UNL1        0.1072
      3 C           5.9036   10.3302    1.0651 C.3     1  UNL1       -0.0458
      4 H           5.7904    9.2529    0.9620 H       1  UNL1        0.0248
      5 H           6.8102   10.6365    0.5489 H       1  UNL1        0.0248
      6 H           5.0524   10.8149    0.5921 H       1  UNL1        0.0248
      7 C           5.9881   10.7215    2.5468 C.3     1  UNL1        0.0290
      8 C           6.1213   12.2442    2.6804 C.3     1  UNL1       -0.0458
      9 H           5.2579   12.7400    2.2416 H       1  UNL1        0.0248
     10 H           7.0171   12.5853    2.1674 H       1  UNL1        0.0248
     11 H           6.1897   12.5250    3.7292 H       1  UNL1        0.0248
     12 C           7.1938   10.0353    3.2005 C.3     1  UNL1       -0.0458
     13 H           7.2289   10.2644    4.2633 H       1  UNL1        0.0248
     14 H           8.1139   10.3817    2.7363 H       1  UNL1        0.0248
     15 H           7.1236    8.9575    3.0799 H       1  UNL1        0.0248
@<TRIPOS>BOND
     1     5     3    1
     2     6     3    1
     3     4     3    1
     4     3     7    1
     5    10     8    1
     6     9     8    1
     7     7     8    1
     8     7    12    1
     9     7     1    1
    10     8    11    1
    11    14    12    1
    12    15    12    1
    13    12    13    1
    14     1     2    1
