@<TRIPOS>MOLECULE
2
 16 15 0 0 0
SMALL
GASTEIGER

@<TRIPOS>ATOM
      1 SI          4.2936    6.2560   11.8812 Si      1  UNL1        0.0000
      2 C           3.0701    5.7229   10.5486 C.3     1  UNL1        0.0000
      3 H           2.5215    4.8423   10.9218 H       1  UNL1        0.0000
      4 H           3.6532    5.3442    9.6950 H       1  UNL1        0.0000
      5 C           5.7007    7.3181   11.1279 C.3     1  UNL1        0.0000
      6 H           6.3440    6.7262   10.4837 H       1  UNL1        0.0000
      7 H           6.3271    7.7538   11.9001 H       1  UNL1        0.0000
      8 H           5.2938    8.1356   10.5392 H       1  UNL1        0.0000
      9 C           3.4369    7.3168   13.2380 C.3     1  UNL1        0.0000
     10 H           2.6979    7.9835   12.7947 H       1  UNL1        0.0000
     11 H           4.1550    7.9320   13.7719 H       1  UNL1        0.0000
     12 H           2.9305    6.6998   13.9754 H       1  UNL1        0.0000
     13 C           5.1588    4.8149   12.8217 C.3     1  UNL1        0.0000
     14 H           4.4349    4.1683   13.3099 H       1  UNL1        0.0000
     15 H           5.8348    5.1828   13.5879 H       1  UNL1        0.0000
     16 H           5.7397    4.1962   12.1444 H       1  UNL1        0.0000
@<TRIPOS>BOND
     1     4     2    1
     2     6     5    1
     3     8     5    1
     4     2     3    1
     5     2     1    1
     6     5     1    1
     7     5     7    1
     8     1    13    1
     9     1     9    1
    10    16    13    1
    11    10     9    1
    12    13    14    1
    13    13    15    1
    14     9    11    1
    15     9    12    1
