@<TRIPOS>MOLECULE
2
 16 15 0 0 0
SMALL
GASTEIGER

@<TRIPOS>ATOM
      1 SI         -1.2035    8.0732    7.7558 Si      1  UNL1        0.0000
      2 C          -0.0382    6.7058    8.3301 C.3     1  UNL1        0.0000
      3 H           0.4676    6.2935    7.4413 H       1  UNL1        0.0000
      4 H          -0.6584    5.8770    8.7046 H       1  UNL1        0.0000
      5 C          -0.2598    9.7254    7.4735 C.3     1  UNL1        0.0000
      6 H           0.5074    9.8647    8.2345 H       1  UNL1        0.0000
      7 H          -0.9306   10.5779    7.5239 H       1  UNL1        0.0000
      8 H           0.2247    9.7543    6.5011 H       1  UNL1        0.0000
      9 C          -2.5620    8.4072    9.0667 C.3     1  UNL1        0.0000
     10 H          -3.2472    7.5691    9.1514 H       1  UNL1        0.0000
     11 H          -3.1509    9.2835    8.8141 H       1  UNL1        0.0000
     12 H          -2.1206    8.5822   10.0439 H       1  UNL1        0.0000
     13 C          -2.1326    7.7187    6.1063 C.3     1  UNL1        0.0000
     14 H          -1.4386    7.5316    5.2917 H       1  UNL1        0.0000
     15 H          -2.7622    8.5533    5.8118 H       1  UNL1        0.0000
     16 H          -2.7707    6.8446    6.1946 H       1  UNL1        0.0000
@<TRIPOS>BOND
     1    14    13    1
     2    15    13    1
     3    13    16    1
     4    13     1    1
     5     8     5    1
     6     3     2    1
     7     5     7    1
     8     5     1    1
     9     5     6    1
    10     1     2    1
    11     1     9    1
    12     2     4    1
    13    11     9    1
    14     9    10    1
    15     9    12    1
