@<TRIPOS>MOLECULE
1
 4 3 0 0 0
SMALL
GASTEIGER

@<TRIPOS>ATOM
      1 C           6.2210    3.4952    3.8962 C.3     1  UNL1       -0.0681
      2 H           6.8533    2.6946    3.5058 H       1  UNL1        0.0227
      3 H           6.4675    4.3907    3.3228 H       1  UNL1        0.0227
      4 H           5.1977    3.2285    3.6307 H       1  UNL1        0.0227
@<TRIPOS>BOND
     1     3     1    1
     2     2     1    1
     3     4     1    1
