@<TRIPOS>MOLECULE
4
 50 54 0 0 0
SMALL
GASTEIGER

@<TRIPOS>ATOM
      1 C          -0.1916    3.9441    6.5494 C.2     1  UNL1       -0.0488
      2 C          -0.0845    4.5464    7.8206 C.2     1  UNL1       -0.0126
      3 C          -0.2393    5.9343    7.6680 C.2     1  UNL1       -0.0162
      4 C          -0.4641    6.2241    6.2604 C.3     1  UNL1        0.0648
      5 C          -0.4317    4.9151    5.5842 C.2     1  UNL1       -0.0233
      6 C          -0.5970    4.6873    4.1515 C.ar    1  UNL1       -0.0206
      7 C          -0.9628    3.4295    3.6618 C.ar    1  UNL1       -0.0543
      8 C          -1.0955    3.2046    2.3058 C.ar    1  UNL1       -0.0612
      9 C          -0.8824    4.2294    1.3982 C.ar    1  UNL1       -0.0617
     10 C          -0.5369    5.4883    1.8628 C.ar    1  UNL1       -0.0612
     11 C          -0.3880    5.7144    3.2185 C.ar    1  UNL1       -0.0543
     12 C          -1.3824    7.3180    5.8499 C.ar    1  UNL1       -0.0310
     13 C          -2.5405    7.0071    5.1302 C.ar    1  UNL1       -0.0574
     14 C          -3.4491    7.9889    4.7850 C.ar    1  UNL1       -0.0615
     15 C          -3.2415    9.3034    5.1684 C.ar    1  UNL1       -0.0617
     16 C          -2.1125    9.6234    5.9035 C.ar    1  UNL1       -0.0615
     17 C          -1.1904    8.6473    6.2359 C.ar    1  UNL1       -0.0574
     18 C          -0.4149    6.8960    8.7652 C.ar    1  UNL1       -0.0201
     19 C          -1.4665    6.7334    9.6654 C.ar    1  UNL1       -0.0543
     20 C          -1.6504    7.6303   10.7000 C.ar    1  UNL1       -0.0612
     21 C          -0.7894    8.7046   10.8551 C.ar    1  UNL1       -0.0617
     22 C           0.2657    8.8721    9.9747 C.ar    1  UNL1       -0.0612
     23 C           0.4526    7.9721    8.9418 C.ar    1  UNL1       -0.0543
     24 C           0.1599    3.8361    9.0685 C.ar    1  UNL1       -0.0176
     25 C          -0.3079    2.5306    9.2334 C.ar    1  UNL1       -0.0540
     26 C          -0.0743    1.8357   10.4037 C.ar    1  UNL1       -0.0612
     27 C           0.6302    2.4284   11.4385 C.ar    1  UNL1       -0.0617
     28 C           1.0964    3.7241   11.2904 C.ar    1  UNL1       -0.0612
     29 C           0.8658    4.4213   10.1208 C.ar    1  UNL1       -0.0540
     30 H          -0.0357    2.8979    6.3555 H       1  UNL1        0.0627
     31 H          -1.1509    2.6261    4.3567 H       1  UNL1        0.0624
     32 H          -1.3735    2.2225    1.9523 H       1  UNL1        0.0618
     33 H          -0.9897    4.0521    0.3389 H       1  UNL1        0.0618
     34 H          -0.3819    6.3015    1.1676 H       1  UNL1        0.0618
     35 H          -0.1455    6.7247    3.5532 H       1  UNL1        0.0624
     36 H          -2.7320    5.9824    4.8500 H       1  UNL1        0.0621
     37 H          -4.3318    7.7226    4.2224 H       1  UNL1        0.0618
     38 H          -3.9528   10.0702    4.9011 H       1  UNL1        0.0618
     39 H          -1.9411   10.6439    6.2149 H       1  UNL1        0.0618
     40 H          -0.3136    8.9306    6.8023 H       1  UNL1        0.0621
     41 H          -2.1372    5.8967    9.5406 H       1  UNL1        0.0624
     42 H          -2.4712    7.4934   11.3885 H       1  UNL1        0.0618
     43 H          -0.9358    9.4062   11.6627 H       1  UNL1        0.0618
     44 H           0.9497    9.7000   10.0905 H       1  UNL1        0.0618
     45 H           1.3047    8.0968    8.2718 H       1  UNL1        0.0624
     46 H          -0.8704    2.0659    8.4370 H       1  UNL1        0.0624
     47 H          -0.4450    0.8264   10.5121 H       1  UNL1        0.0618
     48 H           0.8142    1.8844   12.3533 H       1  UNL1        0.0618
     49 H           1.6482    4.1936   12.0926 H       1  UNL1        0.0618
     50 H           1.2456    5.4267   10.0180 H       1  UNL1        0.0624
@<TRIPOS>BOND
     1    33     9    1
     2    34    10    1
     3     9    10   ar
     4     9     8   ar
     5    10    11   ar
     6    32     8    1
     7     8     7   ar
     8    11    35    1
     9    11     6   ar
    10     7     6   ar
    11     7    31    1
    12     6     5    1
    13    37    14    1
    14    14    13   ar
    15    14    15   ar
    16    36    13    1
    17    38    15    1
    18    13    12   ar
    19    15    16   ar
    20     5     4    1
    21     5     1    2
    22    12    17   ar
    23    12     4    1
    24    16    39    1
    25    16    17   ar
    26    17    40    1
    27     4     3    1
    28    30     1    1
    29     1     2    1
    30     3     2    2
    31     3    18    1
    32     2    24    1
    33    45    23    1
    34    46    25    1
    35    18    23   ar
    36    18    19   ar
    37    23    22   ar
    38    24    25   ar
    39    24    29   ar
    40    25    26   ar
    41    41    19    1
    42    19    20   ar
    43    22    44    1
    44    22    21   ar
    45    50    29    1
    46    29    28   ar
    47    26    47    1
    48    26    27   ar
    49    20    21   ar
    50    20    42    1
    51    21    43    1
    52    28    27   ar
    53    28    49    1
    54    27    48    1
