@<TRIPOS>MOLECULE
6
 16 15 0 0 0
SMALL
GASTEIGER

@<TRIPOS>ATOM
      1 SI         -0.7997   14.1022    7.3045 Si      1  UNL1        0.0000
      2 C          -2.2849   15.0578    6.5496 C.3     1  UNL1        0.0000
      3 H          -2.4303   16.0163    7.0392 H       1  UNL1        0.0000
      4 H          -3.2085   14.4981    6.6591 H       1  UNL1        0.0000
      5 H          -2.1328   15.2408    5.4891 H       1  UNL1        0.0000
      6 C           0.8315   14.7610    6.6393 C.3     1  UNL1        0.0000
      7 H           1.6337   14.1904    7.1226 H       1  UNL1        0.0000
      8 H           0.9647   15.8014    6.9614 H       1  UNL1        0.0000
      9 C          -0.9544   12.2537    6.8366 C.3     1  UNL1        0.0000
     10 H          -0.8164   12.1075    5.7680 H       1  UNL1        0.0000
     11 H          -1.9238   11.8469    7.1070 H       1  UNL1        0.0000
     12 H          -0.1975   11.6636    7.3433 H       1  UNL1        0.0000
     13 C          -1.0191   14.2135    9.2099 C.3     1  UNL1        0.0000
     14 H          -0.2570   13.6338    9.7208 H       1  UNL1        0.0000
     15 H          -1.9858   13.8354    9.5283 H       1  UNL1        0.0000
     16 H          -0.9377   15.2384    9.5595 H       1  UNL1        0.0000
@<TRIPOS>BOND
     1     5     2    1
     2    10     9    1
     3     2     4    1
     4     2     3    1
     5     2     1    1
     6     6     8    1
     7     6     7    1
     8     6     1    1
     9     9    11    1
    10     9     1    1
    11     9    12    1
    12     1    13    1
    13    13    15    1
    14    13    16    1
    15    13    14    1
