@<TRIPOS>MOLECULE
14
 16 15 0 0 0
SMALL
GASTEIGER

@<TRIPOS>ATOM
      1 SI         -0.5203   13.4304    1.1676 Si      1  UNL1        0.0000
      2 C           1.3303   13.3385    0.6395 C.3     1  UNL1        0.0000
      3 H           1.9999   13.7509    1.3955 H       1  UNL1        0.0000
      4 H           1.5060   13.8809   -0.2850 H       1  UNL1        0.0000
      5 H           1.6335   12.3101    0.4647 H       1  UNL1        0.0000
      6 C          -1.3602   14.8380    0.1675 C.3     1  UNL1        0.0000
      7 H          -2.4402   14.7769    0.2576 H       1  UNL1        0.0000
      8 H          -1.1180   14.7708   -0.8884 H       1  UNL1        0.0000
      9 H          -1.0612   15.8232    0.5101 H       1  UNL1        0.0000
     10 C          -1.3193   11.8070    0.5273 C.3     1  UNL1        0.0000
     11 H          -0.8789   10.9381    1.0068 H       1  UNL1        0.0000
     12 H          -1.1879   11.6903   -0.5442 H       1  UNL1        0.0000
     13 H          -2.3854   11.7863    0.7308 H       1  UNL1        0.0000
     14 C          -0.7225   13.7051    3.0218 C.3     1  UNL1        0.0000
     15 H          -0.9844   12.7404    3.4756 H       1  UNL1        0.0000
     16 H          -1.6104   14.3318    3.1755 H       1  UNL1        0.0000
@<TRIPOS>BOND
     1     8     6    1
     2    12    10    1
     3     4     2    1
     4     6     7    1
     5     6     9    1
     6     6     1    1
     7     5     2    1
     8    10    13    1
     9    10    11    1
    10    10     1    1
    11     2     1    1
    12     2     3    1
    13     1    14    1
    14    14    16    1
    15    14    15    1
