@<TRIPOS>MOLECULE
1
 4 3 0 0 0
SMALL
GASTEIGER

@<TRIPOS>ATOM
      1 C           5.4910   -1.1606   11.4702 C.3     1  UNL1       -0.0681
      2 H           5.1197   -2.0389   12.0111 H       1  UNL1        0.0227
      3 H           6.2305   -0.6695   12.1146 H       1  UNL1        0.0227
      4 H           6.0338   -1.5318   10.5906 H       1  UNL1        0.0227
@<TRIPOS>BOND
     1     4     1    1
     2     1     2    1
     3     1     3    1
