@<TRIPOS>MOLECULE
1
 4 3 0 0 0
SMALL
GASTEIGER

@<TRIPOS>ATOM
      1 C           2.5571   -1.1606   10.4014 C.3     1  UNL1       -0.0681
      2 H           2.9284   -2.0389    9.8605 H       1  UNL1        0.0227
      3 H           1.8177   -0.6695    9.7569 H       1  UNL1        0.0227
      4 H           2.0143   -1.5318   11.2810 H       1  UNL1        0.0227
@<TRIPOS>BOND
     1     3     1    1
     2     2     1    1
     3     1     4    1
