@<TRIPOS>MOLECULE
1
 11 11 0 0 0
SMALL
GASTEIGER

@<TRIPOS>ATOM
      1 C           8.2239    1.2048    8.7908 C.ar    1  UNL1       -0.0179
      2 C           9.6048    0.9740    8.6219 C.ar    1  UNL1       -0.0540
      3 C          10.3919    0.2992    9.5421 C.ar    1  UNL1       -0.0612
      4 C           9.8322   -0.1901   10.7087 C.ar    1  UNL1       -0.0617
      5 C           8.4844    0.0212   10.9382 C.ar    1  UNL1       -0.0612
      6 C           7.7139    0.7001   10.0068 C.ar    1  UNL1       -0.0540
      7 H          10.1031    1.3456    7.7274 H       1  UNL1        0.0624
      8 H          10.4389   -0.7178   11.4310 H       1  UNL1        0.0618
      9 H           8.0319   -0.3389   11.8523 H       1  UNL1        0.0618
     10 H           6.6667    0.8633   10.2499 H       1  UNL1        0.0624
     11 H          11.4479    0.1584    9.3509 H       1  UNL1        0.0618
@<TRIPOS>BOND
     1     7     2    1
     2     2     1   ar
     3     2     3   ar
     4     1     6   ar
     5    11     3    1
     6     3     4   ar
     7     6    10    1
     8     6     5   ar
     9     4     5   ar
    10     4     8    1
    11     5     9    1
