@<TRIPOS>MOLECULE
1
 11 11 0 0 0
SMALL
GASTEIGER

@<TRIPOS>ATOM
      1 C           5.8377    0.7778    6.7728 C.ar    1  UNL1       -0.0179
      2 C           5.4571    0.6667    5.4185 C.ar    1  UNL1       -0.0540
      3 C           4.7445   -0.4050    4.9062 C.ar    1  UNL1       -0.0612
      4 C           4.3665   -1.4476    5.7337 C.ar    1  UNL1       -0.0617
      5 C           4.7163   -1.3935    7.0705 C.ar    1  UNL1       -0.0612
      6 C           5.4340   -0.3144    7.5654 C.ar    1  UNL1       -0.0540
      7 H           5.7208    1.4665    4.7266 H       1  UNL1        0.0624
      8 H           4.4807   -0.4264    3.8569 H       1  UNL1        0.0618
      9 H           3.8091   -2.2868    5.3428 H       1  UNL1        0.0618
     10 H           4.4302   -2.1983    7.7341 H       1  UNL1        0.0618
     11 H           5.6924   -0.3315    8.6194 H       1  UNL1        0.0624
@<TRIPOS>BOND
     1     8     3    1
     2     7     2    1
     3     3     2   ar
     4     3     4   ar
     5     9     4    1
     6     2     1   ar
     7     4     5   ar
     8     1     6   ar
     9     5     6   ar
    10     5    10    1
    11     6    11    1
