@<TRIPOS>MOLECULE
4
 48 50 0 0 0
SMALL
GASTEIGER

@<TRIPOS>ATOM
      1 O           2.3121   10.5519    3.4961 O.3     1  UNL1       -0.4520
      2 O           2.7508   12.8020    3.2504 O.3     1  UNL1       -0.4526
      3 N           5.6124    8.6718    6.9333 N.2     1  UNL1       -0.2513
      4 C           4.1665   10.0277    5.0183 C.ar    1  UNL1        0.0407
      5 C           3.4284   10.8869    4.2398 C.ar    1  UNL1        0.1746
      6 C           3.6897   12.2453    4.0708 C.ar    1  UNL1        0.1669
      7 C           4.7796   12.8256    4.6773 C.ar    1  UNL1       -0.0155
      8 H           5.0164   13.8666    4.5339 H       1  UNL1        0.0655
      9 C           5.5425   12.0058    5.5004 C.ar    1  UNL1       -0.0486
     10 H           6.3849   12.4560    6.0002 H       1  UNL1        0.0625
     11 C           5.2403   10.6553    5.7008 C.ar    1  UNL1        0.0076
     12 C           1.8602   11.7550    2.9190 C.3     1  UNL1        0.2333
     13 H           0.8554   11.9974    3.3034 H       1  UNL1        0.1166
     14 H           1.8188   11.6552    1.8246 H       1  UNL1        0.1166
     15 C           6.0151    9.8509    6.6535 C.2     1  UNL1        0.0467
     16 C           7.2232   10.4800    7.2998 C.3     1  UNL1       -0.0217
     17 H           7.6747    9.7887    8.0075 H       1  UNL1        0.0293
     18 H           6.9433   11.3884    7.8306 H       1  UNL1        0.0293
     19 H           7.9552   10.7410    6.5380 H       1  UNL1        0.0293
     20 C           6.2591    7.8452    7.8568 C.ar    1  UNL1        0.0710
     21 C           7.4522    7.1693    7.5483 C.ar    1  UNL1       -0.0192
     22 C           8.0327    6.3631    8.5176 C.ar    1  UNL1       -0.0563
     23 H           8.9564    5.8505    8.2942 H       1  UNL1        0.0621
     24 C           7.4630    6.2067    9.7670 C.ar    1  UNL1       -0.0611
     25 H           7.9384    5.5825   10.5096 H       1  UNL1        0.0618
     26 C           6.2771    6.8541   10.0564 C.ar    1  UNL1       -0.0563
     27 H           5.8319    6.7304   11.0313 H       1  UNL1        0.0621
     28 C           5.6649    7.6699    9.1184 C.ar    1  UNL1       -0.0192
     29 C           8.1033    7.2660    6.1890 C.3     1  UNL1       -0.0195
     30 H           7.4939    7.9134    5.5543 H       1  UNL1        0.0344
     31 C           8.1386    5.8848    5.5326 C.3     1  UNL1       -0.0586
     32 H           7.1295    5.4904    5.4782 H       1  UNL1        0.0235
     33 H           8.7621    5.1962    6.0990 H       1  UNL1        0.0235
     34 H           8.5345    5.9605    4.5230 H       1  UNL1        0.0235
     35 C           9.5210    7.8378    6.2781 C.3     1  UNL1       -0.0586
     36 H           9.5257    8.8217    6.7400 H       1  UNL1        0.0235
     37 H           9.9460    7.9229    5.2805 H       1  UNL1        0.0235
     38 H          10.1656    7.1862    6.8633 H       1  UNL1        0.0235
     39 C           4.4232    8.4504    9.4810 C.3     1  UNL1       -0.0195
     40 H           3.9236    8.7341    8.5469 H       1  UNL1        0.0344
     41 C           4.8469    9.7191   10.2294 C.3     1  UNL1       -0.0586
     42 H           5.4441   10.3616    9.5875 H       1  UNL1        0.0235
     43 H           5.4434    9.4564   11.1012 H       1  UNL1        0.0235
     44 H           3.9781   10.2786   10.5685 H       1  UNL1        0.0235
     45 C           3.4351    7.6459   10.3254 C.3     1  UNL1       -0.0586
     46 H           3.2542    6.6716    9.8785 H       1  UNL1        0.0235
     47 H           2.4870    8.1759   10.3900 H       1  UNL1        0.0235
     48 H           3.8040    7.5031   11.3383 H       1  UNL1        0.0235
@<TRIPOS>BOND
     1    14    12    1
     2    12     2    1
     3    12    13    1
     4    12     1    1
     5     2     6    1
     6     1     5    1
     7     6     5   ar
     8     6     7   ar
     9     5     4   ar
    10    34    31    1
    11     8     7    1
    12     7     9   ar
    13     4    11   ar
    14    37    35    1
    15    32    31    1
    16     9    11   ar
    17     9    10    1
    18    31    33    1
    19    31    29    1
    20    30    29    1
    21    11    15    1
    22    29    35    1
    23    29    21    1
    24    35    36    1
    25    35    38    1
    26    19    16    1
    27    15     3    2
    28    15    16    1
    29     3    20    1
    30    16    18    1
    31    16    17    1
    32    21    20   ar
    33    21    22   ar
    34    20    28   ar
    35    23    22    1
    36    22    24   ar
    37    40    39    1
    38    28    39    1
    39    28    26   ar
    40    39    41    1
    41    39    45    1
    42    42    41    1
    43    24    26   ar
    44    24    25    1
    45    46    45    1
    46    26    27    1
    47    41    44    1
    48    41    43    1
    49    45    47    1
    50    45    48    1
