@<TRIPOS>MOLECULE
2
 16 15 0 0 0
SMALL
GASTEIGER

@<TRIPOS>ATOM
      1 SI          2.2381    7.4135    1.3348 Si      1  UNL1        0.0000
      2 C           2.0430    7.4092    3.2296 C.3     1  UNL1        0.0000
      3 H           1.6658    6.4150    3.5203 H       1  UNL1        0.0000
      4 H           1.2356    8.1129    3.4410 H       1  UNL1        0.0000
      5 C           0.8468    6.3030    0.6006 C.3     1  UNL1        0.0000
      6 H           0.9208    6.2567   -0.4815 H       1  UNL1        0.0000
      7 H          -0.1432    6.6775    0.8418 H       1  UNL1        0.0000
      8 H           0.9113    5.2847    0.9735 H       1  UNL1        0.0000
      9 C           1.9688    9.1506    0.5683 C.3     1  UNL1        0.0000
     10 H           1.9171    9.0768   -0.5141 H       1  UNL1        0.0000
     11 H           2.7910    9.8161    0.8099 H       1  UNL1        0.0000
     12 H           1.0473    9.6155    0.9038 H       1  UNL1        0.0000
     13 C           3.8639    6.7965    0.5327 C.3     1  UNL1        0.0000
     14 H           4.0438    7.3313   -0.3961 H       1  UNL1        0.0000
     15 H           3.8213    5.7397    0.2915 H       1  UNL1        0.0000
     16 H           4.7241    6.9502    1.1726 H       1  UNL1        0.0000
@<TRIPOS>BOND
     1    10     9    1
     2     6     5    1
     3    14    13    1
     4    15    13    1
     5    13    16    1
     6    13     1    1
     7     9    11    1
     8     9    12    1
     9     9     1    1
    10     5     7    1
    11     5     8    1
    12     5     1    1
    13     1     2    1
    14     2     4    1
    15     2     3    1
