@<TRIPOS>MOLECULE
1
 4 3 0 0 0
SMALL
GASTEIGER

@<TRIPOS>ATOM
      1 C           2.5074    4.5030    5.1795 C.3     1  UNL1       -0.0681
      2 H           2.3067    3.5924    4.6094 H       1  UNL1        0.0227
      3 H           3.5789    4.7186    5.0879 H       1  UNL1        0.0227
      4 H           1.9687    5.3049    4.6662 H       1  UNL1        0.0227
@<TRIPOS>BOND
     1     2     1    1
     2     4     1    1
     3     3     1    1
