@<TRIPOS>MOLECULE
1
 4 3 0 0 0
SMALL
GASTEIGER

@<TRIPOS>ATOM
      1 C          -0.0031    4.2997    6.5600 C.3     1  UNL1       -0.0681
      2 H          -0.3110    5.1904    6.0072 H       1  UNL1        0.0227
      3 H          -0.6638    4.2132    7.4324 H       1  UNL1        0.0227
      4 H          -0.2113    3.4496    5.9029 H       1  UNL1        0.0227
@<TRIPOS>BOND
     1     4     1    1
     2     2     1    1
     3     1     3    1
