@<TRIPOS>MOLECULE
2
 16 15 0 0 0
SMALL
GASTEIGER

@<TRIPOS>ATOM
      1 SI          8.0742    6.2561   20.3688 Si      1  UNL1        0.0000
      2 C           7.2514    5.2753   21.7539 C.3     1  UNL1        0.0000
      3 H           6.1723    5.2350   21.5668 H       1  UNL1        0.0000
      4 H           7.3708    5.8383   22.6860 H       1  UNL1        0.0000
      5 C           7.2418    7.9432   19.9849 C.3     1  UNL1        0.0000
      6 H           7.7561    8.4698   19.1873 H       1  UNL1        0.0000
      7 H           7.2425    8.5891   20.8570 H       1  UNL1        0.0000
      8 H           6.2093    7.8116   19.6772 H       1  UNL1        0.0000
      9 C           8.0610    5.2478   18.7389 C.3     1  UNL1        0.0000
     10 H           8.7586    5.6454   18.0076 H       1  UNL1        0.0000
     11 H           7.0765    5.2499   18.2832 H       1  UNL1        0.0000
     12 H           8.3307    4.2127   18.9374 H       1  UNL1        0.0000
     13 C           9.8963    6.6244   20.8337 C.3     1  UNL1        0.0000
     14 H          10.4871    6.9089   19.9681 H       1  UNL1        0.0000
     15 H          10.3540    5.7471   21.2829 H       1  UNL1        0.0000
     16 H           9.9621    7.4342   21.5526 H       1  UNL1        0.0000
@<TRIPOS>BOND
     1    10     9    1
     2    11     9    1
     3     9    12    1
     4     9     1    1
     5     6     5    1
     6     8     5    1
     7    14    13    1
     8     5     1    1
     9     5     7    1
    10     1    13    1
    11     1     2    1
    12    13    15    1
    13    13    16    1
    14     3     2    1
    15     2     4    1
