@<TRIPOS>MOLECULE
1
 16 15 0 0 0
SMALL
GASTEIGER

@<TRIPOS>ATOM
      1 C           0.0668    8.8952    3.1179 C.3     1  UNL1       -0.0476
      2 H           0.2351    7.9449    2.5956 H       1  UNL1        0.0271
      3 H          -0.5114    8.6688    4.0255 H       1  UNL1        0.0271
      4 C          -0.7790    9.7911    2.2169 C.3     1  UNL1       -0.0377
      5 C          -2.0711    9.0550    1.8268 C.3     1  UNL1       -0.0601
      6 H          -2.6934    9.6882    1.1979 H       1  UNL1        0.0235
      7 H          -2.6444    8.7864    2.7119 H       1  UNL1        0.0235
      8 H          -1.8456    8.1442    1.2753 H       1  UNL1        0.0235
      9 C          -1.1401   11.0801    2.9598 C.3     1  UNL1       -0.0601
     10 H          -0.2295   11.5847    3.2784 H       1  UNL1        0.0235
     11 H          -1.7438   10.8576    3.8377 H       1  UNL1        0.0235
     12 H          -1.7105   11.7441    2.3142 H       1  UNL1        0.0235
     13 C           0.0080   10.1289    0.9469 C.3     1  UNL1       -0.0601
     14 H           0.9020   10.6927    1.2085 H       1  UNL1        0.0235
     15 H          -0.6001   10.7265    0.2709 H       1  UNL1        0.0235
     16 H           0.3004    9.2188    0.4248 H       1  UNL1        0.0235
@<TRIPOS>BOND
     1    15    13    1
     2    16    13    1
     3    13    14    1
     4    13     4    1
     5     6     5    1
     6     8     5    1
     7     5     4    1
     8     5     7    1
     9     4     9    1
    10     4     1    1
    11    12     9    1
    12     2     1    1
    13     9    10    1
    14     9    11    1
    15     1     3    1
