@<TRIPOS>MOLECULE
1
 16 15 0 0 0
SMALL
GASTEIGER

@<TRIPOS>ATOM
      1 C           1.8530    9.6870    6.0703 C.3     1  UNL1       -0.0476
      2 H           1.0831   10.4372    6.2893 H       1  UNL1        0.0271
      3 H           1.4525    8.7146    6.3869 H       1  UNL1        0.0271
      4 C           3.0896   10.0005    6.9138 C.3     1  UNL1       -0.0377
      5 C           3.5808   11.4190    6.6110 C.3     1  UNL1       -0.0601
      6 H           3.7722   11.5333    5.5447 H       1  UNL1        0.0235
      7 H           4.4911   11.6351    7.1666 H       1  UNL1        0.0235
      8 H           2.8238   12.1454    6.8961 H       1  UNL1        0.0235
      9 C           4.2122    8.9969    6.6201 C.3     1  UNL1       -0.0601
     10 H           5.0847    9.2218    7.2317 H       1  UNL1        0.0235
     11 H           4.5082    9.0361    5.5710 H       1  UNL1        0.0235
     12 H           3.8946    7.9821    6.8568 H       1  UNL1        0.0235
     13 C           2.7286    9.9090    8.4059 C.3     1  UNL1       -0.0601
     14 H           2.4015    8.9037    8.6648 H       1  UNL1        0.0235
     15 H           1.9259   10.6020    8.6474 H       1  UNL1        0.0235
     16 H           3.5902   10.1559    9.0229 H       1  UNL1        0.0235
@<TRIPOS>BOND
     1     6     5    1
     2    11     9    1
     3     1     2    1
     4     1     3    1
     5     1     4    1
     6     5     8    1
     7     5     4    1
     8     5     7    1
     9     9    12    1
    10     9     4    1
    11     9    10    1
    12     4    13    1
    13    13    15    1
    14    13    14    1
    15    13    16    1
