@<TRIPOS>MOLECULE
2
 16 15 0 0 0
SMALL
GASTEIGER

@<TRIPOS>ATOM
      1 SI         12.6695    3.9382    2.2419 Si      1  UNL1        0.0000
      2 C          12.6334    3.7702    4.1112 C.3     1  UNL1        0.0000
      3 H          13.4686    4.3573    4.5144 H       1  UNL1        0.0000
      4 H          12.8568    2.7315    4.3803 H       1  UNL1        0.0000
      5 C          10.9895    3.4000    1.4787 C.3     1  UNL1        0.0000
      6 H          10.9452    2.3214    1.3588 H       1  UNL1        0.0000
      7 H          10.8373    3.8367    0.4961 H       1  UNL1        0.0000
      8 H          10.1551    3.7053    2.1100 H       1  UNL1        0.0000
      9 C          12.9980    5.7694    1.7864 C.3     1  UNL1        0.0000
     10 H          12.3842    6.4308    2.3891 H       1  UNL1        0.0000
     11 H          12.7843    5.9723    0.7418 H       1  UNL1        0.0000
     12 H          14.0377    6.0286    1.9611 H       1  UNL1        0.0000
     13 C          14.0108    2.9163    1.3206 C.3     1  UNL1        0.0000
     14 H          15.0071    3.1977    1.6472 H       1  UNL1        0.0000
     15 H          13.9651    3.0627    0.2454 H       1  UNL1        0.0000
     16 H          13.8983    1.8529    1.5097 H       1  UNL1        0.0000
@<TRIPOS>BOND
     1    15    13    1
     2     7     5    1
     3    11     9    1
     4    13    16    1
     5    13    14    1
     6    13     1    1
     7     6     5    1
     8     5     8    1
     9     5     1    1
    10     9    12    1
    11     9     1    1
    12     9    10    1
    13     1     2    1
    14     2     4    1
    15     2     3    1
