@<TRIPOS>MOLECULE
2
 16 15 0 0 0
SMALL
GASTEIGER

@<TRIPOS>ATOM
      1 SI          2.9781    6.2939    6.6000 Si      1  UNL1        0.0000
      2 C           4.0487    7.8289    6.3866 C.3     1  UNL1        0.0000
      3 H           4.7946    7.8121    7.1995 H       1  UNL1        0.0000
      4 H           3.4098    8.6925    6.6424 H       1  UNL1        0.0000
      5 C           2.2532    5.7486    4.9002 C.3     1  UNL1        0.0000
      6 H           1.2298    6.0922    4.7807 H       1  UNL1        0.0000
      7 H           2.2425    4.6681    4.7936 H       1  UNL1        0.0000
      8 H           2.8487    6.1592    4.0821 H       1  UNL1        0.0000
      9 C           3.9636    4.8064    7.3135 C.3     1  UNL1        0.0000
     10 H           4.7095    4.4361    6.6171 H       1  UNL1        0.0000
     11 H           3.3015    3.9780    7.5466 H       1  UNL1        0.0000
     12 H           4.4752    5.0792    8.2319 H       1  UNL1        0.0000
     13 C           1.4697    6.5121    7.7704 C.3     1  UNL1        0.0000
     14 H           1.7881    6.7310    8.7853 H       1  UNL1        0.0000
     15 H           0.8501    5.6207    7.8069 H       1  UNL1        0.0000
     16 H           0.8390    7.3342    7.4441 H       1  UNL1        0.0000
@<TRIPOS>BOND
     1     8     5    1
     2     6     5    1
     3     7     5    1
     4     5     1    1
     5     2     1    1
     6     2     4    1
     7     2     3    1
     8     1     9    1
     9     1    13    1
    10    10     9    1
    11     9    11    1
    12     9    12    1
    13    16    13    1
    14    13    15    1
    15    13    14    1
