@<TRIPOS>MOLECULE
2
 16 15 0 0 0
SMALL
GASTEIGER

@<TRIPOS>ATOM
      1 SI          6.2154   11.5277    6.0474 Si      1  UNL1        0.0000
      2 C           6.3439   10.4526    4.5092 C.3     1  UNL1        0.0000
      3 H           7.4137   10.2470    4.3311 H       1  UNL1        0.0000
      4 H           6.0321   11.0853    3.6632 H       1  UNL1        0.0000
      5 C           4.3823   11.9896    6.3594 C.3     1  UNL1        0.0000
      6 H           4.0077   12.6476    5.5813 H       1  UNL1        0.0000
      7 H           4.2474   12.4959    7.3099 H       1  UNL1        0.0000
      8 H           3.7536   11.1023    6.3610 H       1  UNL1        0.0000
      9 C           7.1839   13.1900    5.9956 C.3     1  UNL1        0.0000
     10 H           8.2456   13.0257    5.8350 H       1  UNL1        0.0000
     11 H           7.0770   13.7500    6.9200 H       1  UNL1        0.0000
     12 H           6.8275   13.8238    5.1887 H       1  UNL1        0.0000
     13 C           6.8861   10.5803    7.5753 C.3     1  UNL1        0.0000
     14 H           6.4002    9.6131    7.6730 H       1  UNL1        0.0000
     15 H           6.7160   11.1312    8.4949 H       1  UNL1        0.0000
     16 H           7.9552   10.4076    7.4932 H       1  UNL1        0.0000
@<TRIPOS>BOND
     1     4     2    1
     2     3     2    1
     3     2     1    1
     4    12     9    1
     5     6     5    1
     6    10     9    1
     7     9     1    1
     8     9    11    1
     9     1     5    1
    10     1    13    1
    11     5     8    1
    12     5     7    1
    13    16    13    1
    14    13    14    1
    15    13    15    1
