@<TRIPOS>MOLECULE
2
 16 15 0 0 0
SMALL
GASTEIGER

@<TRIPOS>ATOM
      1 SI         12.1874    3.6548    8.4096 Si      1  UNL1        0.0000
      2 C          10.8406    4.6772    7.5907 C.3     1  UNL1        0.0000
      3 H          11.0096    5.7365    7.8229 H       1  UNL1        0.0000
      4 H           9.8726    4.4238    8.0375 H       1  UNL1        0.0000
      5 C          12.0891    1.8358    7.8122 C.3     1  UNL1        0.0000
      6 H          11.2757    1.2989    8.2901 H       1  UNL1        0.0000
      7 H          13.0048    1.2942    8.0289 H       1  UNL1        0.0000
      8 H          11.9190    1.7889    6.7374 H       1  UNL1        0.0000
      9 C          12.1447    3.6061   10.3307 C.3     1  UNL1        0.0000
     10 H          12.2707    4.5986   10.7527 H       1  UNL1        0.0000
     11 H          12.9320    2.9767   10.7345 H       1  UNL1        0.0000
     12 H          11.1984    3.2170   10.6943 H       1  UNL1        0.0000
     13 C          13.9141    4.3438    7.9388 C.3     1  UNL1        0.0000
     14 H          14.0732    4.3059    6.8653 H       1  UNL1        0.0000
     15 H          14.7078    3.7708    8.4077 H       1  UNL1        0.0000
     16 H          14.0282    5.3755    8.2585 H       1  UNL1        0.0000
@<TRIPOS>BOND
     1     8     5    1
     2    14    13    1
     3     2     3    1
     4     2     4    1
     5     2     1    1
     6     5     7    1
     7     5     6    1
     8     5     1    1
     9    13    16    1
    10    13    15    1
    11    13     1    1
    12     1     9    1
    13     9    12    1
    14     9    11    1
    15     9    10    1
