@<TRIPOS>MOLECULE
1
 4 3 0 0 0
SMALL
GASTEIGER

@<TRIPOS>ATOM
      1 C           4.8312    4.8257    3.8327 C.3     1  UNL1       -0.0681
      2 H           4.4376    5.7944    3.5213 H       1  UNL1        0.0227
      3 H           5.8082    5.0035    4.2764 H       1  UNL1        0.0227
      4 H           4.1787    4.4395    4.6163 H       1  UNL1        0.0227
@<TRIPOS>BOND
     1     2     1    1
     2     1     3    1
     3     1     4    1
