@<TRIPOS>MOLECULE
1
 4 3 0 0 0
SMALL
GASTEIGER

@<TRIPOS>ATOM
      1 C           4.9288    1.1069    2.4203 C.3     1  UNL1       -0.0681
      2 H           4.3506    0.5875    1.6556 H       1  UNL1        0.0227
      3 H           4.4842    0.8716    3.3884 H       1  UNL1        0.0227
      4 H           5.9316    0.6860    2.4166 H       1  UNL1        0.0227
@<TRIPOS>BOND
     1     2     1    1
     2     4     1    1
     3     1     3    1
