@<TRIPOS>MOLECULE
1
 4 3 0 0 0
SMALL
GASTEIGER

@<TRIPOS>ATOM
      1 C           5.0392    4.1912   -0.0907 C.3     1  UNL1       -0.0681
      2 H           4.6852    3.4476   -0.8063 H       1  UNL1        0.0227
      3 H           6.0529    4.4587   -0.3801 H       1  UNL1        0.0227
      4 H           4.4187    5.0807   -0.2031 H       1  UNL1        0.0227
@<TRIPOS>BOND
     1     2     1    1
     2     3     1    1
     3     4     1    1
