@<TRIPOS>MOLECULE
2
 16 15 0 0 0
SMALL
GASTEIGER

@<TRIPOS>ATOM
      1 SI         -2.8455    1.2500    2.3889 Si      1  UNL1        0.0000
      2 C          -2.4320    2.4042    3.8085 C.3     1  UNL1        0.0000
      3 C          -3.1760    2.2755    0.8009 C.3     1  UNL1        0.0000
      4 C          -1.4093    0.0254    2.0449 C.3     1  UNL1        0.0000
      5 C          -4.3940    0.1394    2.6517 C.3     1  UNL1        0.0000
      6 H          -2.1559    1.7969    4.6794 H       1  UNL1        0.0000
      7 H          -3.3622    2.9146    4.0927 H       1  UNL1        0.0000
      8 H          -3.2681    3.3340    1.0348 H       1  UNL1        0.0000
      9 H          -4.0975    1.9683    0.3164 H       1  UNL1        0.0000
     10 H          -2.3781    2.1634    0.0730 H       1  UNL1        0.0000
     11 H          -0.4770    0.5444    1.8494 H       1  UNL1        0.0000
     12 H          -1.6265   -0.5939    1.1803 H       1  UNL1        0.0000
     13 H          -1.2480   -0.6401    2.8872 H       1  UNL1        0.0000
     14 H          -4.2813   -0.4910    3.5291 H       1  UNL1        0.0000
     15 H          -4.5794   -0.5131    1.8031 H       1  UNL1        0.0000
     16 H          -5.2838    0.7445    2.7995 H       1  UNL1        0.0000
@<TRIPOS>BOND
     1    10     3    1
     2     9     3    1
     3     3     8    1
     4     3     1    1
     5    12     4    1
     6    15     5    1
     7    11     4    1
     8     4     1    1
     9     4    13    1
    10     1     5    1
    11     1     2    1
    12     5    16    1
    13     5    14    1
    14     2     7    1
    15     2     6    1
