@<TRIPOS>MOLECULE
2
 16 15 0 0 0
SMALL
GASTEIGER

@<TRIPOS>ATOM
      1 SI         -2.2555    7.5045    1.9720 Si      1  UNL1        0.0000
      2 C          -2.1481    6.4775    3.5388 C.3     1  UNL1        0.0000
      3 C          -3.5078    8.9636    2.0060 C.3     1  UNL1        0.0000
      4 C          -0.5551    8.2874    1.5590 C.3     1  UNL1        0.0000
      5 C          -2.7819    6.3891    0.5054 C.3     1  UNL1        0.0000
      6 H          -3.1609    6.1676    3.8253 H       1  UNL1        0.0000
      7 H          -1.7859    7.1139    4.3569 H       1  UNL1        0.0000
      8 H          -4.5125    8.6068    2.2117 H       1  UNL1        0.0000
      9 H          -3.5380    9.4978    1.0609 H       1  UNL1        0.0000
     10 H          -3.2536    9.6822    2.7796 H       1  UNL1        0.0000
     11 H          -0.2410    8.9796    2.3350 H       1  UNL1        0.0000
     12 H          -0.5935    8.8431    0.6272 H       1  UNL1        0.0000
     13 H           0.2124    7.5273    1.4572 H       1  UNL1        0.0000
     14 H          -2.1625    5.4957    0.4432 H       1  UNL1        0.0000
     15 H          -2.7045    6.9120   -0.4430 H       1  UNL1        0.0000
     16 H          -3.8129    6.0671    0.6153 H       1  UNL1        0.0000
@<TRIPOS>BOND
     1    15     5    1
     2    14     5    1
     3     5    16    1
     4     5     1    1
     5    12     4    1
     6     9     3    1
     7    13     4    1
     8     4     1    1
     9     4    11    1
    10     1     3    1
    11     1     2    1
    12     3     8    1
    13     3    10    1
    14     2     6    1
    15     2     7    1
