@<TRIPOS>MOLECULE
2
 36 38 0 0 0
SMALL
GASTEIGER

@<TRIPOS>ATOM
      1 SI          0.7817    7.2789   11.6120 Si      1  UNL1        0.0000
      2 C           1.8905    6.4275   10.3928 C.3     1  UNL1        0.0000
      3 C           1.3830    7.2681   13.4122 C.ar    1  UNL1        0.0000
      4 C           2.0617    8.3511   13.9594 C.ar    1  UNL1        0.0000
      5 H           2.2427    9.2231   13.3463 H       1  UNL1        0.0000
      6 C           2.5000    8.3327   15.2713 C.ar    1  UNL1        0.0000
      7 H           3.0233    9.1865   15.6789 H       1  UNL1        0.0000
      8 C           2.2675    7.2212   16.0635 C.ar    1  UNL1        0.0000
      9 H           2.6069    7.2044   17.0893 H       1  UNL1        0.0000
     10 C           1.5957    6.1317   15.5343 C.ar    1  UNL1        0.0000
     11 H           1.4095    5.2615   16.1483 H       1  UNL1        0.0000
     12 C           1.1611    6.1594   14.2218 C.ar    1  UNL1        0.0000
     13 H           0.6320    5.3102   13.8133 H       1  UNL1        0.0000
     14 C           0.6906    9.1176   11.0984 C.ar    1  UNL1        0.0000
     15 C          -0.3617    9.9525   11.4604 C.ar    1  UNL1        0.0000
     16 H          -1.1941    9.5426   12.0148 H       1  UNL1        0.0000
     17 C          -0.3608   11.2953   11.1213 C.ar    1  UNL1        0.0000
     18 H          -1.1882   11.9271   11.4130 H       1  UNL1        0.0000
     19 C           0.6995   11.8300   10.4074 C.ar    1  UNL1        0.0000
     20 H           0.7014   12.8767   10.1409 H       1  UNL1        0.0000
     21 C           1.7589   11.0163   10.0416 C.ar    1  UNL1        0.0000
     22 H           2.5917   11.4252    9.4882 H       1  UNL1        0.0000
     23 C           1.7521    9.6753   10.3895 C.ar    1  UNL1        0.0000
     24 H           2.6157    9.0522   10.1473 H       1  UNL1        0.0000
     25 C          -0.9926    6.5855   11.6715 C.ar    1  UNL1        0.0000
     26 C          -1.4459    5.7548   10.6540 C.ar    1  UNL1        0.0000
     27 H          -0.7688    5.5232    9.8336 H       1  UNL1        0.0000
     28 C          -2.7223    5.2207   10.6773 C.ar    1  UNL1        0.0000
     29 H          -3.0518    4.5709    9.8791 H       1  UNL1        0.0000
     30 C          -3.5744    5.5163   11.7284 C.ar    1  UNL1        0.0000
     31 H          -4.5726    5.1034   11.7512 H       1  UNL1        0.0000
     32 C          -3.1383    6.3383   12.7544 C.ar    1  UNL1        0.0000
     33 H          -3.7974    6.5667   13.5802 H       1  UNL1        0.0000
     34 C          -1.8578    6.8616   12.7265 C.ar    1  UNL1        0.0000
     35 H          -1.5156    7.4847   13.5410 H       1  UNL1        0.0000
     36 H           2.7054    5.8311   10.8085 H       1  UNL1        0.0000
@<TRIPOS>BOND
     1    22    21    1
     2    27    26    1
     3    29    28    1
     4    21    23   ar
     5    21    19   ar
     6    20    19    1
     7    24    23    1
     8    23    14   ar
     9     2    36    1
    10     2     1    1
    11    19    17   ar
    12    26    28   ar
    13    26    25   ar
    14    28    30   ar
    15    14    15   ar
    16    14     1    1
    17    17    18    1
    18    17    15   ar
    19    15    16    1
    20     1    25    1
    21     1     3    1
    22    25    34   ar
    23    30    31    1
    24    30    32   ar
    25    34    32   ar
    26    34    35    1
    27    32    33    1
    28     5     4    1
    29     3     4   ar
    30     3    12   ar
    31    13    12    1
    32     4     6   ar
    33    12    10   ar
    34     6     7    1
    35     6     8   ar
    36    10     8   ar
    37    10    11    1
    38     8     9    1
