@<TRIPOS>MOLECULE
2
 45 45 0 0 0
SMALL
GASTEIGER

@<TRIPOS>ATOM
      1 SI         13.9333    5.9567   13.3201 Si      1  UNL1        0.0000
      2 C           7.3373    8.2836   20.3102 C.1     1  UNL1        0.0000
      3 C           8.1240    8.0888   19.4040 C.1     1  UNL1        0.0000
      4 C           9.0506    7.8048   18.3768 C.ar    1  UNL1        0.0000
      5 C           8.6481    7.1187   17.2242 C.ar    1  UNL1        0.0000
      6 C           9.5584    6.8073   16.2400 C.ar    1  UNL1        0.0000
      7 C          10.9014    7.1709   16.3766 C.ar    1  UNL1        0.0000
      8 C          11.3046    7.8688   17.5190 C.ar    1  UNL1        0.0000
      9 C          10.3934    8.1786   18.5024 C.ar    1  UNL1        0.0000
     10 C          11.8442    6.8155   15.3887 C.1     1  UNL1        0.0000
     11 C          12.6569    6.4919   14.5504 C.1     1  UNL1        0.0000
     12 C          15.6408    6.4757   14.0314 C.3     1  UNL1        0.0000
     13 C          13.8144    4.0382   13.2145 C.3     1  UNL1        0.0000
     14 C          13.5861    6.9344   11.6992 C.3     1  UNL1        0.0000
     15 C          15.7066    7.9886   14.2201 C.3     1  UNL1        0.0000
     16 C          15.9199    5.7844   15.3626 C.3     1  UNL1        0.0000
     17 C          14.6255    3.4449   12.0655 C.3     1  UNL1        0.0000
     18 C          12.3692    3.5538   13.1440 C.3     1  UNL1        0.0000
     19 C          12.2799    6.5074   11.0373 C.3     1  UNL1        0.0000
     20 C          14.7305    6.8689   10.6901 C.3     1  UNL1        0.0000
     21 H           7.6106    6.8361   17.1173 H       1  UNL1        0.0000
     22 H           9.2448    6.2720   15.3542 H       1  UNL1        0.0000
     23 H          12.3426    8.1542   17.6226 H       1  UNL1        0.0000
     24 H          10.7047    8.7094   19.3898 H       1  UNL1        0.0000
     25 H          16.4370    6.1897   13.3360 H       1  UNL1        0.0000
     26 H          14.2325    3.6459   14.1478 H       1  UNL1        0.0000
     27 H          13.4672    7.9832   11.9932 H       1  UNL1        0.0000
     28 H          15.5699    8.5092   13.2758 H       1  UNL1        0.0000
     29 H          16.6700    8.2846   14.6350 H       1  UNL1        0.0000
     30 H          14.9255    8.3146   14.9032 H       1  UNL1        0.0000
     31 H          15.9716    4.7055   15.2410 H       1  UNL1        0.0000
     32 H          16.8679    6.1229   15.7805 H       1  UNL1        0.0000
     33 H          15.1312    6.0103   16.0768 H       1  UNL1        0.0000
     34 H          14.6212    2.3558   12.1168 H       1  UNL1        0.0000
     35 H          15.6598    3.7809   12.1003 H       1  UNL1        0.0000
     36 H          14.2000    3.7327   11.1064 H       1  UNL1        0.0000
     37 H          12.3287    2.4655   13.1885 H       1  UNL1        0.0000
     38 H          11.7924    3.9546   13.9736 H       1  UNL1        0.0000
     39 H          11.8969    3.8705   12.2181 H       1  UNL1        0.0000
     40 H          12.0380    7.1659   10.2031 H       1  UNL1        0.0000
     41 H          12.3586    5.4945   10.6492 H       1  UNL1        0.0000
     42 H          11.4600    6.5414   11.7506 H       1  UNL1        0.0000
     43 H          14.5096    7.4947    9.8251 H       1  UNL1        0.0000
     44 H          15.6614    7.2190   11.1299 H       1  UNL1        0.0000
     45 H          14.8817    5.8520   10.3364 H       1  UNL1        0.0000
@<TRIPOS>BOND
     1    43    20    1
     2    40    19    1
     3    45    20    1
     4    41    19    1
     5    20    44    1
     6    20    14    1
     7    19    14    1
     8    19    42    1
     9    36    17    1
    10    14    27    1
    11    14     1    1
    12    17    35    1
    13    17    34    1
    14    17    13    1
    15    39    18    1
    16    18    37    1
    17    18    13    1
    18    18    38    1
    19    13     1    1
    20    13    26    1
    21    28    15    1
    22     1    12    1
    23     1    11    1
    24    25    12    1
    25    12    15    1
    26    12    16    1
    27    15    29    1
    28    15    30    1
    29    11    10    3
    30    31    16    1
    31    22     6    1
    32    16    32    1
    33    16    33    1
    34    10     7    1
    35     6     7   ar
    36     6     5   ar
    37     7     8   ar
    38    21     5    1
    39     5     4   ar
    40     8    23    1
    41     8     9   ar
    42     4     9   ar
    43     4     3    1
    44     9    24    1
    45     3     2    3
