@<TRIPOS>MOLECULE
3
 22 22 0 0 0
SMALL
GASTEIGER

@<TRIPOS>ATOM
      1 SI         -0.1466    8.4600    4.8155 Si      1  UNL1        0.0000
      2 C           1.1918    7.7170    5.9072 C.2     1  UNL1        0.0000
      3 C           1.0084    6.5783    6.8269 C.3     1  UNL1        0.0000
      4 H           0.4639    5.7199    6.4393 H       1  UNL1        0.0000
      5 C           2.3321    6.3326    7.3895 C.2     1  UNL1        0.0000
      6 H           2.5705    5.5199    8.0541 H       1  UNL1        0.0000
      7 C           3.1925    7.2713    6.9179 C.2     1  UNL1        0.0000
      8 H           4.2323    7.3747    7.1736 H       1  UNL1        0.0000
      9 C           2.4897    8.1218    6.0098 C.2     1  UNL1        0.0000
     10 H           2.9329    8.9575    5.4982 H       1  UNL1        0.0000
     11 C           0.4855    8.4435    3.0130 C.3     1  UNL1        0.0000
     12 H           1.4162    8.9929    2.9215 H       1  UNL1        0.0000
     13 H          -0.2349    8.9022    2.3439 H       1  UNL1        0.0000
     14 H           0.6667    7.4333    2.6615 H       1  UNL1        0.0000
     15 C          -1.7384    7.4056    4.8838 C.3     1  UNL1        0.0000
     16 H          -2.1747    7.3640    5.8779 H       1  UNL1        0.0000
     17 H          -1.5483    6.3842    4.5656 H       1  UNL1        0.0000
     18 H          -2.4933    7.8140    4.2179 H       1  UNL1        0.0000
     19 C          -0.4710   10.2783    5.3126 C.3     1  UNL1        0.0000
     20 H           0.3868   10.8995    5.0718 H       1  UNL1        0.0000
     21 H          -0.6568   10.3814    6.3778 H       1  UNL1        0.0000
     22 H          -1.3290   10.6865    4.7867 H       1  UNL1        0.0000
@<TRIPOS>BOND
     1    13    11    1
     2    14    11    1
     3    12    11    1
     4    11     1    1
     5    18    15    1
     6    17    15    1
     7    22    19    1
     8     1    15    1
     9     1    19    1
    10     1     2    1
    11    15    16    1
    12    20    19    1
    13    19    21    1
    14    10     9    1
    15     2     9    2
    16     2     3    1
    17     9     7    1
    18     4     3    1
    19     3     5    1
    20     7     8    1
    21     7     5    2
    22     5     6    1
