@<TRIPOS>MOLECULE
44
 46 46 0 0 0
SMALL
GASTEIGER

@<TRIPOS>ATOM
      1 SI          6.0985    0.1280   14.5367 Si      1  UNL1        0.0000
      2 SI         11.2824   -1.3391   12.6766 Si      1  UNL1        0.0000
      3 SI         11.6756    0.9744   15.7176 Si      1  UNL1        0.0000
      4 C           5.4120    1.4692   15.7170 C.3     1  UNL1        0.0000
      5 H           4.4119    1.2112   16.0518 H       1  UNL1        0.0000
      6 H           5.3559    2.4437   15.2417 H       1  UNL1        0.0000
      7 H           6.0323    1.5673   16.6017 H       1  UNL1        0.0000
      8 C           4.9987    0.1142   12.9674 C.3     1  UNL1        0.0000
      9 H           4.0680   -0.4116   13.1555 H       1  UNL1        0.0000
     10 H           5.4959   -0.3892   12.1443 H       1  UNL1        0.0000
     11 H           4.7453    1.1170   12.6375 H       1  UNL1        0.0000
     12 C           5.8565   -1.5669   15.3926 C.3     1  UNL1        0.0000
     13 H           4.8141   -1.7503   15.6372 H       1  UNL1        0.0000
     14 H           6.4273   -1.6244   16.3141 H       1  UNL1        0.0000
     15 H           6.1935   -2.3766   14.7527 H       1  UNL1        0.0000
     16 C          10.8524   -1.7903   10.8603 C.3     1  UNL1        0.0000
     17 H          11.2554   -2.7702   10.6238 H       1  UNL1        0.0000
     18 H          11.2857   -1.0899   10.1534 H       1  UNL1        0.0000
     19 H           9.7819   -1.8322   10.6883 H       1  UNL1        0.0000
     20 C          11.0665   -2.9674   13.6655 C.3     1  UNL1        0.0000
     21 H          11.8076   -3.7087   13.3822 H       1  UNL1        0.0000
     22 H          10.0853   -3.3958   13.4849 H       1  UNL1        0.0000
     23 H          11.1522   -2.8031   14.7339 H       1  UNL1        0.0000
     24 C          13.1393   -0.8966   12.6350 C.3     1  UNL1        0.0000
     25 H          13.6939   -1.7320   12.2170 H       1  UNL1        0.0000
     26 H          13.5458   -0.6985   13.6189 H       1  UNL1        0.0000
     27 H          13.3433   -0.0346   12.0099 H       1  UNL1        0.0000
     28 C          12.4593   -0.6435   16.3639 C.3     1  UNL1        0.0000
     29 H          13.3202   -0.4220   16.9870 H       1  UNL1        0.0000
     30 H          12.7885   -1.2966   15.5661 H       1  UNL1        0.0000
     31 H          11.7493   -1.1973   16.9702 H       1  UNL1        0.0000
     32 C          11.1532    1.9179   17.3024 C.3     1  UNL1        0.0000
     33 H          11.9616    1.9100   18.0270 H       1  UNL1        0.0000
     34 H          10.2887    1.4689   17.7805 H       1  UNL1        0.0000
     35 H          10.9220    2.9562   17.0912 H       1  UNL1        0.0000
     36 C          12.9771    2.0821   14.8520 C.3     1  UNL1        0.0000
     37 H          13.7913    2.3274   15.5283 H       1  UNL1        0.0000
     38 H          12.5271    3.0226   14.5311 H       1  UNL1        0.0000
     39 H          13.4150    1.6079   13.9803 H       1  UNL1        0.0000
     40 C           7.9132    0.3726   14.1728 C.2     1  UNL1        0.0000
     41 C           8.6699   -0.2914   13.1800 C.2     1  UNL1        0.0000
     42 H           8.2431   -0.9040   12.3989 H       1  UNL1        0.0000
     43 C          10.0479   -0.1197   13.4088 C.3     1  UNL1        0.0000
     44 C          10.1749    0.6932   14.6073 C.3     1  UNL1        0.0000
     45 C           8.8494    0.9830   15.0341 C.3     1  UNL1        0.0000
     46 H           8.5922    1.4602   15.9705 H       1  UNL1        0.0000
@<TRIPOS>BOND
     1    18    16    1
     2    17    16    1
     3    19    16    1
     4    16     2    1
     5    27    24    1
     6    10     8    1
     7    25    24    1
     8    42    41    1
     9    24     2    1
    10    24    26    1
    11    11     8    1
    12     2    43    1
    13     2    20    1
    14     8     9    1
    15     8     1    1
    16    41    43    1
    17    41    40    2
    18    21    20    1
    19    43    44    1
    20    22    20    1
    21    20    23    1
    22    39    36    1
    23    40     1    1
    24    40    45    1
    25    38    36    1
    26     1    12    1
    27     1     4    1
    28    44    45    1
    29    44     3    1
    30    15    12    1
    31    36    37    1
    32    36     3    1
    33    45    46    1
    34     6     4    1
    35    12    13    1
    36    12    14    1
    37    30    28    1
    38     4     5    1
    39     4     7    1
    40     3    28    1
    41     3    32    1
    42    28    31    1
    43    28    29    1
    44    35    32    1
    45    32    34    1
    46    32    33    1
