@<TRIPOS>MOLECULE
8
 46 46 0 0 0
SMALL
GASTEIGER

@<TRIPOS>ATOM
      1 SI          3.0430    6.1251    6.3886 Si      1  UNL1        0.0000
      2 SI          2.2249    3.1323   11.2776 Si      1  UNL1        0.0000
      3 SI         -1.1011    4.7451   10.0315 Si      1  UNL1        0.0000
      4 C           2.1754    5.0198    7.6268 C.2     1  UNL1        0.0000
      5 C           2.7569    4.2462    8.6601 C.2     1  UNL1        0.0000
      6 H           3.8187    4.0746    8.7770 H       1  UNL1        0.0000
      7 C           1.7741    3.8600    9.6006 C.3     1  UNL1        0.0000
      8 C           0.5109    4.3980    9.1305 C.3     1  UNL1        0.0000
      9 C           0.7961    5.0933    7.9276 C.3     1  UNL1        0.0000
     10 H           0.0844    5.7011    7.3848 H       1  UNL1        0.0000
     11 C           4.8925    5.6889    6.1872 C.3     1  UNL1        0.0000
     12 H           5.3575    5.4718    7.1428 H       1  UNL1        0.0000
     13 H           5.4302    6.5230    5.7478 H       1  UNL1        0.0000
     14 H           5.0405    4.8289    5.5423 H       1  UNL1        0.0000
     15 C           2.2120    6.0682    4.6652 C.3     1  UNL1        0.0000
     16 H           2.8058    6.6036    3.9303 H       1  UNL1        0.0000
     17 H           1.2331    6.5358    4.6904 H       1  UNL1        0.0000
     18 H           2.0828    5.0517    4.3045 H       1  UNL1        0.0000
     19 C           2.9373    7.9313    7.0120 C.3     1  UNL1        0.0000
     20 H           3.4633    8.0523    7.9538 H       1  UNL1        0.0000
     21 H           1.9070    8.2319    7.1752 H       1  UNL1        0.0000
     22 H           3.3736    8.6235    6.2980 H       1  UNL1        0.0000
     23 C           1.3030    1.4956   11.6671 C.3     1  UNL1        0.0000
     24 H           0.3600    1.4250   11.1326 H       1  UNL1        0.0000
     25 H           1.0830    1.4209   12.7277 H       1  UNL1        0.0000
     26 H           1.9062    0.6324   11.4038 H       1  UNL1        0.0000
     27 C           4.1000    2.7603   11.3220 C.3     1  UNL1        0.0000
     28 H           4.3768    2.3291   12.2790 H       1  UNL1        0.0000
     29 H           4.6880    3.6630   11.1900 H       1  UNL1        0.0000
     30 H           4.3939    2.0522   10.5539 H       1  UNL1        0.0000
     31 C           1.8684    4.3783   12.6819 C.3     1  UNL1        0.0000
     32 H           0.8063    4.4713   12.8789 H       1  UNL1        0.0000
     33 H           2.2471    5.3649   12.4367 H       1  UNL1        0.0000
     34 H           2.3470    4.0608   13.6028 H       1  UNL1        0.0000
     35 C          -1.7300    3.3964   11.2329 C.3     1  UNL1        0.0000
     36 H          -2.6856    3.6938   11.6539 H       1  UNL1        0.0000
     37 H          -1.0441    3.2467   12.0578 H       1  UNL1        0.0000
     38 H          -1.8758    2.4381   10.7439 H       1  UNL1        0.0000
     39 C          -2.4808    5.0089    8.7220 C.3     1  UNL1        0.0000
     40 H          -2.3780    5.9755    8.2393 H       1  UNL1        0.0000
     41 H          -3.4645    4.9821    9.1809 H       1  UNL1        0.0000
     42 H          -2.4640    4.2530    7.9427 H       1  UNL1        0.0000
     43 C          -0.9692    6.3873   11.0033 C.3     1  UNL1        0.0000
     44 H          -0.6574    7.1990   10.3533 H       1  UNL1        0.0000
     45 H          -0.2445    6.3205   11.8068 H       1  UNL1        0.0000
     46 H          -1.9243    6.6623   11.4409 H       1  UNL1        0.0000
@<TRIPOS>BOND
     1    16    15    1
     2    18    15    1
     3    15    17    1
     4    15     1    1
     5    14    11    1
     6    13    11    1
     7    11     1    1
     8    11    12    1
     9    22    19    1
    10     1    19    1
    11     1     4    1
    12    19    21    1
    13    19    20    1
    14    10     9    1
    15     4     9    1
    16     4     5    2
    17     9     8    1
    18    42    39    1
    19    40    39    1
    20     5     6    1
    21     5     7    1
    22    39    41    1
    23    39     3    1
    24     8     7    1
    25     8     3    1
    26     7     2    1
    27     3    43    1
    28     3    35    1
    29    44    43    1
    30    30    27    1
    31    38    35    1
    32    43    46    1
    33    43    45    1
    34    24    23    1
    35    29    27    1
    36    35    36    1
    37    35    37    1
    38     2    27    1
    39     2    23    1
    40     2    31    1
    41    27    28    1
    42    26    23    1
    43    23    25    1
    44    33    31    1
    45    31    32    1
    46    31    34    1
