@<TRIPOS>MOLECULE
9
 70 71 0 0 0
SMALL
GASTEIGER

@<TRIPOS>ATOM
      1 CL          1.8329   -4.4660    9.7825 Cl      1  UNL1        0.0000
      2 CL          3.3113   -7.6424    8.0804 Cl      1  UNL1        0.0000
      3 SI          1.9610   -4.2120    7.7039 Si      1  UNL1        0.0000
      4 SI          2.8825   -6.1455    6.6759 Si      1  UNL1        0.0000
      5 SI          2.2078   -1.8809    7.3624 Si      1  UNL1        0.0000
      6 SI          4.4661   -6.4288    4.9387 Si      1  UNL1        0.0000
      7 O           0.1903   -7.2463    9.1025 O.3     1  UNL1        0.0000
      8 O           0.7998   -4.2731    4.1174 O.3     1  UNL1        0.0000
      9 C           0.3827   -6.6565    8.1411 C.3     1  UNL1        0.0000
     10 C           0.7196   -4.8604    5.1060 C.3     1  UNL1        0.0000
     11 C           2.7762   -1.6747    5.5514 C.3     1  UNL1        0.0000
     12 H           2.7334   -0.6364    5.2389 H       1  UNL1        0.0000
     13 H           3.7972   -2.0125    5.4160 H       1  UNL1        0.0000
     14 H           2.1540   -2.2433    4.8712 H       1  UNL1        0.0000
     15 C           3.6488   -1.2136    8.4836 C.3     1  UNL1        0.0000
     16 C           4.7901   -2.2310    8.4487 C.3     1  UNL1        0.0000
     17 H           4.4799   -3.1812    8.8747 H       1  UNL1        0.0000
     18 H           5.1272   -2.4065    7.4305 H       1  UNL1        0.0000
     19 H           5.6370   -1.8616    9.0251 H       1  UNL1        0.0000
     20 C           4.1815    0.1206    7.9553 C.3     1  UNL1        0.0000
     21 H           4.9955    0.4727    8.5883 H       1  UNL1        0.0000
     22 H           4.5650    0.0121    6.9446 H       1  UNL1        0.0000
     23 H           3.4085    0.8836    7.9496 H       1  UNL1        0.0000
     24 C           3.2121   -1.0318    9.9359 C.3     1  UNL1        0.0000
     25 H           4.0609   -0.7275   10.5477 H       1  UNL1        0.0000
     26 H           2.4477   -0.2642   10.0248 H       1  UNL1        0.0000
     27 H           2.8209   -1.9604   10.3407 H       1  UNL1        0.0000
     28 C           0.4684   -1.0289    7.5405 C.3     1  UNL1        0.0000
     29 C           0.5640    0.4965    7.6079 C.3     1  UNL1        0.0000
     30 H           1.0787    0.8191    8.5092 H       1  UNL1        0.0000
     31 H           1.0928    0.8929    6.7439 H       1  UNL1        0.0000
     32 H          -0.4343    0.9333    7.6200 H       1  UNL1        0.0000
     33 C          -0.2515   -1.5372    8.7888 C.3     1  UNL1        0.0000
     34 H          -1.2343   -1.0743    8.8726 H       1  UNL1        0.0000
     35 H          -0.3923   -2.6153    8.7427 H       1  UNL1        0.0000
     36 H           0.3083   -1.3087    9.6912 H       1  UNL1        0.0000
     37 C          -0.3704   -1.4015    6.3169 C.3     1  UNL1        0.0000
     38 H          -1.3846   -1.0194    6.4266 H       1  UNL1        0.0000
     39 H           0.0522   -0.9790    5.4097 H       1  UNL1        0.0000
     40 H          -0.4289   -2.4816    6.1943 H       1  UNL1        0.0000
     41 C           4.4421   -4.7810    3.9744 C.3     1  UNL1        0.0000
     42 H           4.9036   -3.9842    4.5466 H       1  UNL1        0.0000
     43 H           4.9799   -4.8602    3.0353 H       1  UNL1        0.0000
     44 H           3.4298   -4.4709    3.7445 H       1  UNL1        0.0000
     45 C           6.2464   -6.6176    5.6963 C.3     1  UNL1        0.0000
     46 C           7.3208   -6.2693    4.6630 C.3     1  UNL1        0.0000
     47 H           8.3105   -6.3741    5.1063 H       1  UNL1        0.0000
     48 H           7.2701   -6.9257    3.7990 H       1  UNL1        0.0000
     49 H           7.2125   -5.2434    4.3222 H       1  UNL1        0.0000
     50 C           6.3747   -5.6413    6.8665 C.3     1  UNL1        0.0000
     51 H           7.3830   -5.6816    7.2763 H       1  UNL1        0.0000
     52 H           6.1807   -4.6200    6.5505 H       1  UNL1        0.0000
     53 H           5.6777   -5.8910    7.6613 H       1  UNL1        0.0000
     54 C           6.5033   -8.0295    6.2200 C.3     1  UNL1        0.0000
     55 H           5.7493   -8.3148    6.9477 H       1  UNL1        0.0000
     56 H           6.5008   -8.7566    5.4121 H       1  UNL1        0.0000
     57 H           7.4772   -8.0775    6.7063 H       1  UNL1        0.0000
     58 C           3.8524   -7.8354    3.7455 C.3     1  UNL1        0.0000
     59 C           2.6313   -7.3145    2.9860 C.3     1  UNL1        0.0000
     60 H           2.8962   -6.4792    2.3442 H       1  UNL1        0.0000
     61 H           2.2148   -8.1025    2.3597 H       1  UNL1        0.0000
     62 H           1.8536   -6.9842    3.6724 H       1  UNL1        0.0000
     63 C           3.4305   -9.0692    4.5423 C.3     1  UNL1        0.0000
     64 H           2.6451   -8.8210    5.2535 H       1  UNL1        0.0000
     65 H           3.0461   -9.8378    3.8725 H       1  UNL1        0.0000
     66 H           4.2653   -9.4895    5.0954 H       1  UNL1        0.0000
     67 C           4.9147   -8.2414    2.7221 C.3     1  UNL1        0.0000
     68 H           5.7747   -8.6961    3.2069 H       1  UNL1        0.0000
     69 H           4.5027   -8.9692    2.0236 H       1  UNL1        0.0000
     70 H           5.2528   -7.3808    2.1493 H       1  UNL1        0.0000
@<TRIPOS>BOND
     1    69    67    1
     2    70    67    1
     3    60    59    1
     4    61    59    1
     5    67    68    1
     6    67    58    1
     7    59    62    1
     8    59    58    1
     9    43    41    1
    10    44    41    1
    11    58    63    1
    12    58     6    1
    13    48    46    1
    14    65    63    1
    15    41    42    1
    16    41     6    1
    17     8    10    1
    18    49    46    1
    19    63    66    1
    20    63    64    1
    21    46    47    1
    22    46    45    1
    23    14    11    1
    24     6    45    1
    25     6     4    1
    26    12    11    1
    27    39    37    1
    28    56    54    1
    29    13    11    1
    30    11     5    1
    31    45    54    1
    32    45    50    1
    33    40    37    1
    34    54    57    1
    35    54    55    1
    36    37    38    1
    37    37    28    1
    38    52    50    1
    39     4     3    1
    40     4     2    1
    41    31    29    1
    42    50    51    1
    43    50    53    1
    44    22    20    1
    45     5    28    1
    46     5     3    1
    47     5    15    1
    48    18    16    1
    49    28    29    1
    50    28    33    1
    51    29    32    1
    52    29    30    1
    53     3     1    1
    54    23    20    1
    55    20    15    1
    56    20    21    1
    57     9     7    1
    58    16    15    1
    59    16    17    1
    60    16    19    1
    61    15    24    1
    62    35    33    1
    63    33    34    1
    64    33    36    1
    65    24    26    1
    66    24    27    1
    67    24    25    1
    68     3     9    0
    69     3    10    0
    70     4     9    0
    71     4    10    0
