@<TRIPOS>MOLECULE
1
 4 3 0 0 0
SMALL
GASTEIGER

@<TRIPOS>ATOM
      1 C           4.7381   -1.7764    0.4916 C.3     1  UNL1       -0.0681
      2 H           4.4369   -2.4914   -0.2851 H       1  UNL1        0.0227
      3 H           4.3532   -2.1645    1.4423 H       1  UNL1        0.0227
      4 H           5.8346   -1.8253    0.5423 H       1  UNL1        0.0227
@<TRIPOS>BOND
     1     2     1    1
     2     1     4    1
     3     1     3    1
