@<TRIPOS>MOLECULE
1
 16 15 0 0 0
SMALL
GASTEIGER

@<TRIPOS>ATOM
      1 C          -1.4297    9.7960    4.0610 C.3     1  UNL1        0.0000
      2 SI         -0.5975    9.0504    2.5503 Si      1  UNL1        0.0000
      3 C           1.3140    8.8073    2.6560 C.3     1  UNL1        0.0000
      4 C          -0.8174   10.1033    0.9537 C.3     1  UNL1        0.0000
      5 C          -1.2505    7.2974    2.0989 C.3     1  UNL1        0.0000
      6 H          -2.1275   10.5644    3.6862 H       1  UNL1        0.0000
      7 H          -2.1032    9.0183    4.4640 H       1  UNL1        0.0000
      8 H           1.7280    8.5864    1.6758 H       1  UNL1        0.0000
      9 H           1.8119    9.7006    3.0213 H       1  UNL1        0.0000
     10 H           1.5817    7.9855    3.3126 H       1  UNL1        0.0000
     11 H          -0.7057    9.4955    0.0605 H       1  UNL1        0.0000
     12 H          -0.0810   10.8989    0.8974 H       1  UNL1        0.0000
     13 H          -1.8009   10.5611    0.9107 H       1  UNL1        0.0000
     14 H          -0.7261    6.8705    1.2485 H       1  UNL1        0.0000
     15 H          -2.3068    7.3292    1.8496 H       1  UNL1        0.0000
     16 H          -1.1359    6.6074    2.9301 H       1  UNL1        0.0000
@<TRIPOS>BOND
     1    11     4    1
     2    12     4    1
     3    13     4    1
     4     4     2    1
     5    14     5    1
     6     8     3    1
     7    15     5    1
     8     5     2    1
     9     5    16    1
    10     2     3    1
    11     2     1    1
    12     3     9    1
    13     3    10    1
    14     6     1    1
    15     1     7    1
