@<TRIPOS>MOLECULE
1
 16 15 0 0 0
SMALL
GASTEIGER

@<TRIPOS>ATOM
      1 C          -1.3020    9.5816    7.9615 C.3     1  UNL1        0.0000
      2 SI         -0.4029    8.8960    9.4582 Si      1  UNL1        0.0000
      3 C           1.4973    8.6202    9.2689 C.3     1  UNL1        0.0000
      4 C          -1.0357    7.1665   10.0289 C.3     1  UNL1        0.0000
      5 C          -0.5396   10.0222   11.0104 C.3     1  UNL1        0.0000
      6 H          -2.1330   10.1857    8.3609 H       1  UNL1        0.0000
      7 H          -1.8048    8.7248    7.4792 H       1  UNL1        0.0000
      8 H           1.9463    8.3734   10.2271 H       1  UNL1        0.0000
      9 H           1.9952    9.5125    8.9012 H       1  UNL1        0.0000
     10 H           1.7262    7.8075    8.5869 H       1  UNL1        0.0000
     11 H          -0.4788    6.7804   10.8782 H       1  UNL1        0.0000
     12 H          -2.0815    7.2139   10.3173 H       1  UNL1        0.0000
     13 H          -0.9570    6.4317    9.2314 H       1  UNL1        0.0000
     14 H          -0.5395    9.4356   11.9244 H       1  UNL1        0.0000
     15 H           0.2932   10.7155   11.0702 H       1  UNL1        0.0000
     16 H          -1.4549   10.6047   11.0014 H       1  UNL1        0.0000
@<TRIPOS>BOND
     1     7     1    1
     2     1     6    1
     3     1     2    1
     4    10     3    1
     5     9     3    1
     6    13     4    1
     7     3     2    1
     8     3     8    1
     9     2     4    1
    10     2     5    1
    11     4    12    1
    12     4    11    1
    13    16     5    1
    14     5    15    1
    15     5    14    1
