@<TRIPOS>MOLECULE
1
 16 15 0 0 0
SMALL
GASTEIGER

@<TRIPOS>ATOM
      1 C          -2.1375    1.9946    7.2201 C.3     1  UNL1        0.0000
      2 SI         -3.2071    3.4363    7.7778 Si      1  UNL1        0.0000
      3 C          -4.9012    3.5398    6.8737 C.3     1  UNL1        0.0000
      4 C          -3.6771    3.3239    9.6439 C.3     1  UNL1        0.0000
      5 C          -2.3713    5.1354    7.4723 C.3     1  UNL1        0.0000
      6 H          -2.6577    1.0870    7.5745 H       1  UNL1        0.0000
      7 H          -2.2825    1.9767    6.1221 H       1  UNL1        0.0000
      8 H          -5.5068    4.3754    7.2146 H       1  UNL1        0.0000
      9 H          -5.4827    2.6340    7.0220 H       1  UNL1        0.0000
     10 H          -4.7558    3.6578    5.8037 H       1  UNL1        0.0000
     11 H          -4.5323    3.9574    9.8573 H       1  UNL1        0.0000
     12 H          -3.9556    2.3100    9.9174 H       1  UNL1        0.0000
     13 H          -2.8772    3.6360   10.3081 H       1  UNL1        0.0000
     14 H          -3.1093    5.9304    7.4219 H       1  UNL1        0.0000
     15 H          -1.6608    5.4054    8.2480 H       1  UNL1        0.0000
     16 H          -1.8350    5.1255    6.5283 H       1  UNL1        0.0000
@<TRIPOS>BOND
     1    10     3    1
     2     7     1    1
     3    16     5    1
     4     3     9    1
     5     3     8    1
     6     3     2    1
     7     1     6    1
     8     1     2    1
     9    14     5    1
    10     5     2    1
    11     5    15    1
    12     2     4    1
    13     4    11    1
    14     4    12    1
    15     4    13    1
