@<TRIPOS>MOLECULE
1
 16 15 0 0 0
SMALL
GASTEIGER

@<TRIPOS>ATOM
      1 C           1.1760    3.5483    6.6662 C.3     1  UNL1        0.0000
      2 SI          1.3834    4.0271    4.8588 Si      1  UNL1        0.0000
      3 C           1.6479    5.9018    4.5164 C.3     1  UNL1        0.0000
      4 C           2.9111    3.1579    4.0849 C.3     1  UNL1        0.0000
      5 C          -0.1818    3.5234    3.8768 C.3     1  UNL1        0.0000
      6 H           0.5169    4.3115    7.1105 H       1  UNL1        0.0000
      7 H           2.1503    3.6953    7.1594 H       1  UNL1        0.0000
      8 H           1.7284    6.1167    3.4548 H       1  UNL1        0.0000
      9 H           0.8181    6.4849    4.9048 H       1  UNL1        0.0000
     10 H           2.5528    6.2681    4.9927 H       1  UNL1        0.0000
     11 H           2.9849    3.3660    3.0223 H       1  UNL1        0.0000
     12 H           2.8621    2.0798    4.2039 H       1  UNL1        0.0000
     13 H           3.8334    3.4989    4.5460 H       1  UNL1        0.0000
     14 H          -0.0607    3.6828    2.8096 H       1  UNL1        0.0000
     15 H          -1.0394    4.1071    4.1975 H       1  UNL1        0.0000
     16 H          -0.4229    2.4738    4.0353 H       1  UNL1        0.0000
@<TRIPOS>BOND
     1    14     5    1
     2    11     4    1
     3     8     3    1
     4     5    16    1
     5     5    15    1
     6     5     2    1
     7     4    12    1
     8     4    13    1
     9     4     2    1
    10     3     2    1
    11     3     9    1
    12     3    10    1
    13     2     1    1
    14     1     6    1
    15     1     7    1
