@<TRIPOS>MOLECULE
1
 16 15 0 0 0
SMALL
GASTEIGER

@<TRIPOS>ATOM
      1 C           0.6273   -0.0220    5.4577 C.3     1  UNL1        0.0000
      2 SI         -0.5403   -1.0411    4.3825 Si      1  UNL1        0.0000
      3 C          -0.1467   -0.9193    2.5080 C.3     1  UNL1        0.0000
      4 C          -0.4227   -2.9149    4.8125 C.3     1  UNL1        0.0000
      5 C          -2.3924   -0.5752    4.5464 C.3     1  UNL1        0.0000
      6 H           1.4011   -0.7318    5.7943 H       1  UNL1        0.0000
      7 H           1.1625    0.6390    4.7518 H       1  UNL1        0.0000
      8 H          -0.8517   -1.4811    1.9019 H       1  UNL1        0.0000
      9 H          -0.1855    0.1152    2.1797 H       1  UNL1        0.0000
     10 H           0.8485   -1.2931    2.2846 H       1  UNL1        0.0000
     11 H          -1.0323   -3.5089    4.1388 H       1  UNL1        0.0000
     12 H          -0.7585   -3.1311    5.8227 H       1  UNL1        0.0000
     13 H           0.5986   -3.2740    4.7250 H       1  UNL1        0.0000
     14 H          -3.0163   -1.2377    3.9529 H       1  UNL1        0.0000
     15 H          -2.7436   -0.6278    5.5730 H       1  UNL1        0.0000
     16 H          -2.5673    0.4363    4.1926 H       1  UNL1        0.0000
@<TRIPOS>BOND
     1     8     3    1
     2     9     3    1
     3    10     3    1
     4     3     2    1
     5    14     5    1
     6    11     4    1
     7    16     5    1
     8     2     5    1
     9     2     4    1
    10     2     1    1
    11     5    15    1
    12    13     4    1
    13     7     1    1
    14     4    12    1
    15     1     6    1
