@<TRIPOS>MOLECULE
1
 16 15 0 0 0
SMALL
GASTEIGER

@<TRIPOS>ATOM
      1 C          -1.7811   12.7474    6.0732 C.3     1  UNL1        0.0000
      2 SI         -3.5278   12.8907    6.7507 Si      1  UNL1        0.0000
      3 C          -4.5635   11.3812    6.1852 C.3     1  UNL1        0.0000
      4 C          -4.4978   14.4441    6.1475 C.3     1  UNL1        0.0000
      5 C          -3.6423   12.9804    8.6659 C.3     1  UNL1        0.0000
      6 H          -1.1633   13.5538    6.4999 H       1  UNL1        0.0000
      7 H          -1.8736   12.9984    5.0050 H       1  UNL1        0.0000
      8 H          -5.5497   11.3687    6.6396 H       1  UNL1        0.0000
      9 H          -4.7003   11.3851    5.1083 H       1  UNL1        0.0000
     10 H          -4.0629   10.4522    6.4463 H       1  UNL1        0.0000
     11 H          -5.5197   14.4582    6.5155 H       1  UNL1        0.0000
     12 H          -4.0198   15.3615    6.4794 H       1  UNL1        0.0000
     13 H          -4.5428   14.4765    5.0627 H       1  UNL1        0.0000
     14 H          -4.6746   13.0966    8.9823 H       1  UNL1        0.0000
     15 H          -3.0859   13.8236    9.0627 H       1  UNL1        0.0000
     16 H          -3.2602   12.0801    9.1361 H       1  UNL1        0.0000
@<TRIPOS>BOND
     1     7     1    1
     2    13     4    1
     3     9     3    1
     4     1     6    1
     5     1     2    1
     6     4    12    1
     7     4    11    1
     8     4     2    1
     9     3    10    1
    10     3     8    1
    11     3     2    1
    12     2     5    1
    13     5    14    1
    14     5    15    1
    15     5    16    1
