@<TRIPOS>MOLECULE
1
 28 27 0 0 0
SMALL
GASTEIGER

@<TRIPOS>ATOM
      1 C           7.8164   10.3001    3.5717 C.3     1  UNL1        0.0000
      2 C           7.3774   11.4503    3.9322 C.3     1  UNL1        0.0000
      3 SI          6.9291   12.7439    2.5918 Si      1  UNL1        0.0000
      4 C           5.0889   13.2043    2.8252 C.3     1  UNL1        0.0000
      5 H           4.8078   14.0162    2.1612 H       1  UNL1        0.0000
      6 H           4.8727   13.5210    3.8397 H       1  UNL1        0.0000
      7 H           4.4457   12.3598    2.6001 H       1  UNL1        0.0000
      8 C           8.0488   14.2773    2.8105 C.3     1  UNL1        0.0000
      9 H           8.0356   14.8887    1.9131 H       1  UNL1        0.0000
     10 H           9.0789   13.9907    2.9957 H       1  UNL1        0.0000
     11 H           7.7262   14.9028    3.6348 H       1  UNL1        0.0000
     12 C           7.1619   12.0821    0.8248 C.3     1  UNL1        0.0000
     13 H           6.7608   12.7738    0.0890 H       1  UNL1        0.0000
     14 H           6.6568   11.1325    0.6947 H       1  UNL1        0.0000
     15 H           8.2113   11.9309    0.5976 H       1  UNL1        0.0000
     16 SI          7.0516   11.7769    5.7949 Si      1  UNL1        0.0000
     17 C           5.3485   11.0191    6.2087 C.3     1  UNL1        0.0000
     18 H           5.0659   11.2176    7.2381 H       1  UNL1        0.0000
     19 H           5.3707    9.9429    6.0733 H       1  UNL1        0.0000
     20 H           4.5650   11.4144    5.5698 H       1  UNL1        0.0000
     21 C           8.4282   10.9735    6.8270 C.3     1  UNL1        0.0000
     22 H           8.2320   11.0568    7.8919 H       1  UNL1        0.0000
     23 H           9.3900   11.4377    6.6320 H       1  UNL1        0.0000
     24 H           8.5145    9.9214    6.5774 H       1  UNL1        0.0000
     25 C           7.0224   13.6477    6.1788 C.3     1  UNL1        0.0000
     26 H           6.8104   13.8050    7.2319 H       1  UNL1        0.0000
     27 H           6.2653   14.1783    5.6124 H       1  UNL1        0.0000
     28 H           7.9806   14.1106    5.9689 H       1  UNL1        0.0000
@<TRIPOS>BOND
     1    13    12    1
     2    15    12    1
     3    14    12    1
     4    12     3    1
     5     9     8    1
     6     5     4    1
     7     3     8    1
     8     3     4    1
     9     3     2    1
    10     7     4    1
    11     8    10    1
    12     8    11    1
    13     4     6    1
    14     1     2    1
    15     2    16    1
    16    20    17    1
    17    27    25    1
    18    16    25    1
    19    16    17    1
    20    16    21    1
    21    28    25    1
    22    19    17    1
    23    25    26    1
    24    17    18    1
    25    24    21    1
    26    23    21    1
    27    21    22    1
